aquifer.con: written by SWAT+ editor v2.1.0 on 2025-01-10 12:35 for SWAT+ rev.2.1.4
      id  name                gis_id          area           lat           lon          elev       aqu               wst       cst      ovfl      rule   out_tot  
       1  aqu1                     0    8614.38958      46.64331      15.59106     366.26136         1        s4664n157e         0         0         0         0  
