'atmodep.cli' file was written by SWATprepR R package 2025-01-10 12:45:18.704533
NUM_STA	TIMESTEP	MO_INIT	YR_INIT	NUM_AA
1	aa	0	0	0
atmodep.cli
0.593	NH4_RF
0.54	NO3_RF
2.264	NH4_DRY
2.754	NO3_DRY
