chandeg.con: written by SWAT+ editor v2.1.0 on 2025-01-10 12:35 for SWAT+ rev.2.1.4
      id  name                gis_id          area           lat           lon          elev      lcha               wst       cst      ovfl      rule   out_tot       obj_typ    obj_id       hyd_typ          frac  
       1  cha001                   0      18.35430      46.59872      15.64056     285.50009         1        s4664n157e         0         0         0         1           sdc         4           tot       1.00000  
       2  cha002                   0      18.55860      46.59753      15.64493     282.00016         2        s4664n157e         0         0         0         1           sdc         7           tot       1.00000  
       3  cha003                   0      17.01690      46.59999      15.63618     299.00009         3        s4664n157e         0         0         0         1           sdc        12           tot       1.00000  
       4  cha004                   0      27.21540      46.59990      15.64363     265.00005         4        s4664n157e         0         0         0         1           sdc         7           tot       1.00000  
       5  cha005                   0       4.15110      46.59959      15.62698     319.50004         5        s4664n157e         0         0         0         1           sdc        10           tot       1.00000  
       6  cha006                   0       5.15180      46.59993      15.62804     304.50004         6        s4664n157e         0         0         0         1           sdc        10           tot       1.00000  
       7  cha007                   0     709.06940      46.60030      15.64710     261.00069         7        s4664n157e         0         0         0         1           sdc        13           tot       1.00000  
       8  cha008                   0      37.93900      46.60060      15.64199     266.50009         8        s4664n157e         0         0         0         1           sdc         4           tot       1.00000  
       9  cha009                   0      38.22790      46.60109      15.64247     263.00022         9        s4664n157e         0         0         0         1           sdc       791           tot       1.00000  
      10  cha010                   0      13.70590      46.60095      15.62806     295.00008        10        s4664n157e         0         0         0         1           sdc        14           tot       1.00000  
      11  cha011                   0       6.75430      46.60132      15.62662     305.00009        11        s4664n157e         0         0         0         1           sdc        14           tot       1.00000  
      12  cha012                   0      35.86910      46.60155      15.64005     270.50011        12        s4664n157e         0         0         0         2           sdc         8           tot       0.50000           sdc        24           tot       0.50000  
      13  cha013                   0     712.46620      46.60143      15.65189     256.00120        13        s4664n157e         0         0         0         1           sdc        17           tot       1.00000  
      14  cha014                   0      21.64830      46.60174      15.62826     289.50014        14        s4664n157e         0         0         0         1           sdc        47           tot       1.00000  
      15  cha015                   0      27.20750      46.60147      15.62937     298.50013        15        s4664n157e         0         0         0         1           sdc        47           tot       1.00000  
      16  cha016                   0    8329.54480      46.60087      15.67492     252.00010        16        s4664n157e         0         0         0         0  
      17  cha017                   0    7433.55920      46.60198      15.65457     254.00112        17        s4664n157e         0         0         0         1           sdc        20           tot       1.00000  
      18  cha018                   0       4.99196      46.60213      15.63589     301.00004        18        s4664n157e         0         0         0         1           sdc       792           tot       1.00000  
      19  cha019                   0       7.72300      46.60266      15.63704     285.00000        19        s4664n157e         0         0         0         1           sdc       792           tot       1.00000  
      20  cha020                   0    7440.13280      46.60191      15.65913     254.00043        20        s4664n157e         0         0         0         1           sdc        22           tot       1.00000  
      21  cha021                   0    8328.74800      46.60214      15.66903     252.50036        21        s4664n157e         0         0         0         1           sdc        16           tot       1.00000  
      22  cha022                   0    7545.66080      46.60283      15.66563     253.50001        22        s4664n157e         0         0         0         1           sdc        21           tot       1.00000  
      23  cha023                   0    6719.82720      46.60243      15.65168     254.50062        23        s4664n157e         0         0         0         1           sdc        17           tot       1.00000  
      24  cha024                   0      38.17830      46.60140      15.64179     266.00006        24        s4664n157e         0         0         0         1           sdc       791           tot       1.00000  
      25  cha025                   0       5.13070      46.60392      15.64319     259.50172        25        s4664n157e         0         0         0         1           sdc       793           tot       1.00000  
      26  cha026                   0     100.10980      46.60413      15.65772     255.50163        26        s4664n157e         0         0         0         1           sdc       794           tot       1.00000  
      27  cha027                   0     100.10980      46.60694      15.65642     268.00029        27        s4664n157e         0         0         0         1           sdc       794           tot       1.00000  
      28  cha028                   0       9.73270      46.60421      15.62006     308.00004        28        s4664n157e         0         0         0         1           sdc        33           tot       1.00000  
      29  cha029                   0    8302.33280      46.60424      15.66666     253.50045        29        s4664n157e         0         0         0         1           sdc        21           tot       1.00000  
      30  cha030                   0      27.31470      46.60535      15.62029     305.00009        30        s4664n157e         0         0         0         1           sdc        33           tot       1.00000  
      31  cha031                   0       0.62600      46.60508      15.66247     259.00054        31        s4664n157e         0         0         0         1           sdc        32           tot       1.00000  
      32  cha032                   0       2.09610      46.60550      15.66349     257.00049        32        s4664n157e         0         0         0         1           sdc        29           tot       1.00000  
      33  cha033                   0      28.52500      46.60556      15.62280     283.50006        33        s4664n157e         0         0         0         1           sdc        36           tot       1.00000  
      34  cha034                   0       5.33540      46.60535      15.60807     466.00004        34        s4664n157e         0         0         0         1           sdc        40           tot       1.00000  
      35  cha035                   0       5.31810      46.60620      15.60756     465.00009        35        s4664n157e         0         0         0         1           sdc        40           tot       1.00000  
      36  cha036                   0      40.06760      46.60643      15.62374     280.50010        36        s4664n157e         0         0         0         1           sdc        44           tot       1.00000  
      37  cha037                   0       8.32620      46.60600      15.64131     261.50022        37        s4664n157e         0         0         0         1           sdc       795           tot       1.00000  
      38  cha038                   0      34.31400      46.60624      15.62190     292.00005        38        s4664n157e         0         0         0         1           sdc        36           tot       1.00000  
      39  cha039                   0       2.62294      46.60667      15.62014     311.00009        39        s4664n157e         0         0         0         1           sdc        38           tot       1.00000  
      40  cha040                   0      23.25150      46.60667      15.61200     384.00009        40        s4664n157e         0         0         0         1           sdc        72           tot       1.00000  
      41  cha041                   0      32.47420      46.60604      15.61487     369.50004        41        s4664n157e         0         0         0         1           sdc        72           tot       1.00000  
      42  cha042                   0       2.48000      46.60531      15.64739     258.50134        42        s4664n157e         0         0         0         1           sdc       796           tot       1.00000  
      43  cha043                   0       2.88630      46.60736      15.62545     278.00003        43        s4664n157e         0         0         0         1           sdc       797           tot       1.00000  
      44  cha044                   0      45.24290      46.60726      15.62481     278.00012        44        s4664n157e         0         0         0         2           sdc        53           tot       0.50000           sdc        54           tot       0.50000  
      45  cha045                   0      40.32190      46.60748      15.62273     296.50004        45        s4664n157e         0         0         0         1           sdc        44           tot       1.00000  
      46  cha046                   0     739.54050      46.60738      15.66407     255.00174        46        s4664n157e         0         0         0         1           sdc       798           tot       1.00000  
      47  cha047                   0     464.50200      46.60538      15.62961     278.00014        47        s4664n157e         0         0         0         1           sdc       799           tot       1.00000  
      48  cha048                   0       9.88180      46.60716      15.64336     259.50028        48        s4664n157e         0         0         0         1           sdc       795           tot       1.00000  
      49  cha049                   0      66.97230      46.60745      15.63272     285.00011        49        s4664n157e         0         0         0         1           sdc       799           tot       1.00000  
      50  cha050                   0      26.88700      46.60687      15.66225     259.00066        50        s4664n157e         0         0         0         1           sdc        32           tot       1.00000  
      51  cha051                   0       0.25270      46.60869      15.63278     266.50044        51        s4664n157e         0         0         0         1           sdc       932           tot       1.00000  
      52  cha052                   0       1.59050      46.60847      15.60690     476.50000        52        s4664n157e         0         0         0         1           sdc       800           tot       1.00000  
      53  cha053                   0       0.00001      46.60753      15.62540     277.50015        53        s4664n157e         0         0         0         1           sdc       797           tot       1.00000  
      54  cha054                   0      54.25290      46.60828      15.62673     273.00018        54        s4664n157e         0         0         0         1           sdc       803           tot       1.00000  
      55  cha055                   0       0.37810      46.60871      15.66356     256.00015        55        s4664n157e         0         0         0         1           sdc       802           tot       1.00000  
      56  cha056                   0     397.23960      46.60881      15.63023     267.00039        56        s4664n157e         0         0         0         1           sdc        57           tot       1.00000  
      57  cha057                   0     467.89460      46.60896      15.63235     266.00047        57        s4664n157e         0         0         0         2           sdc        66           tot       0.50000           sdc       933           tot       0.50000  
      58  cha058                   0      57.59490      46.60883      15.62731     271.50011        58        s4664n157e         0         0         0         1           sdc       803           tot       1.00000  
      59  cha059                   0    6685.58480      46.60904      15.64764     256.00068        59        s4664n157e         0         0         0         1           sdc       804           tot       1.00000  
      60  cha060                   0       7.73860      46.60855      15.65042     257.00074        60        s4664n157e         0         0         0         1           sdc       804           tot       1.00000  
      61  cha061                   0       4.13630      46.61020      15.60374     442.00005        61        s4664n157e         0         0         0         1           sdc        77           tot       1.00000  
      62  cha062                   0       2.49140      46.60990      15.60466     454.00005        62        s4664n157e         0         0         0         1           sdc        77           tot       1.00000  
      63  cha063                   0     731.40240      46.61016      15.66376     255.50176        63        s4664n157e         0         0         0         1           sdc       802           tot       1.00000  
      64  cha064                   0       0.00001      46.61082      15.64453     257.00047        64        s4664n157e         0         0         0         1           sdc        59           tot       1.00000  
      65  cha065                   0      36.95730      46.61079      15.64371     258.50024        65        s4664n157e         0         0         0         1           sdc        59           tot       1.00000  
      66  cha066                   0     487.15510      46.60925      15.63347     266.00032        66        s4664n157e         0         0         0         1           sdc       805           tot       1.00000  
      67  cha067                   0      16.82330      46.61034      15.63553     268.50022        67        s4664n157e         0         0         0         1           sdc       806           tot       1.00000  
      68  cha068                   0       8.80870      46.61106      15.64190     260.00018        68        s4664n157e         0         0         0         1           sdc        65           tot       1.00000  
      69  cha069                   0       8.52940      46.61070      15.59980     447.50009        69        s4664n157e         0         0         0         1           sdc        76           tot       1.00000  
      70  cha070                   0     334.04970      46.61015      15.62711     271.50001        70        s4664n157e         0         0         0         1           sdc        56           tot       1.00000  
      71  cha071                   0       6.77900      46.61156      15.59938     446.00004        71        s4664n157e         0         0         0         1           sdc        76           tot       1.00000  
      72  cha072                   0      64.91760      46.61003      15.61813     305.50011        72        s4664n157e         0         0         0         1           sdc        73           tot       1.00000  
      73  cha073                   0     260.35290      46.61166      15.62424     276.00008        73        s4664n157e         0         0         0         1           sdc        70           tot       1.00000  
      74  cha074                   0     260.35290      46.61196      15.62423     279.00009        74        s4664n157e         0         0         0         1           sdc       810           tot       1.00000  
      75  cha075                   0    6638.38880      46.61164      15.64408     257.50024        75        s4664n157e         0         0         0         1           sdc        64           tot       1.00000  
      76  cha076                   0      21.57280      46.61212      15.60174     411.00004        76        s4664n157e         0         0         0         1           sdc        78           tot       1.00000  
      77  cha077                   0      51.13290      46.61165      15.60472     399.00004        77        s4664n157e         0         0         0         1           sdc        82           tot       1.00000  
      78  cha078                   0      39.44560      46.61276      15.60395     383.00009        78        s4664n157e         0         0         0         1           sdc        82           tot       1.00000  
      79  cha079                   0       6.23080      46.61213      15.64085     262.50119        79        s4664n157e         0         0         0         1           sdc        68           tot       1.00000  
      80  cha080                   0       9.36850      46.61207      15.66238     258.50177        80        s4664n157e         0         0         0         1           sdc        63           tot       1.00000  
      81  cha081                   0     722.42360      46.61240      15.66355     256.50165        81        s4664n157e         0         0         0         1           sdc        63           tot       1.00000  
      82  cha082                   0      53.65790      46.61324      15.60556     367.50009        82        s4664n157e         0         0         0         1           sdc        88           tot       1.00000  
      83  cha083                   0       6.46820      46.61484      15.64096     267.50004        83        s4664n157e         0         0         0         1           sdc       808           tot       1.00000  
      84  cha084                   0      12.21800      46.61360      15.64124     261.50120        84        s4664n157e         0         0         0         1           sdc       807           tot       1.00000  
      85  cha085                   0      13.77710      46.61254      15.63096     284.00013        85        s4664n157e         0         0         0         1           res        15           tot       1.00000  
      86  cha086                   0      16.87020      46.60993      15.63251     270.00037        86        s4664n157e         0         0         0         1           sdc       805           tot       1.00000  
      87  cha087                   0       2.97440      46.60866      15.60622     474.00000        87        s4664n157e         0         0         0         1           sdc       800           tot       1.00000  
      88  cha088                   0      66.37590      46.61386      15.60785     348.00009        88        s4664n157e         0         0         0         1           sdc        99           tot       1.00000  
      89  cha089                   0     713.26580      46.61389      15.66341     257.50015        89        s4664n157e         0         0         0         1           res         8           tot       1.00000  
      90  cha090                   0       0.00001      46.61322      15.66370     257.00187        90        s4664n157e         0         0         0         1           sdc        81           tot       1.00000  
      91  cha091                   0     715.48570      46.61359      15.66365     257.00010        91        s4664n157e         0         0         0         1           sdc        81           tot       1.00000  
      92  cha092                   0      13.56970      46.61352      15.60127     416.00009        92        s4664n157e         0         0         0         1           sdc        78           tot       1.00000  
      93  cha093                   0      63.39790      46.61471      15.60502     396.00004        93        s4664n157e         0         0         0         1           sdc        88           tot       1.00000  
      94  cha094                   0     180.56470      46.61346      15.61959     284.00010        94        s4664n157e         0         0         0         1           sdc        73           tot       1.00000  
      95  cha095                   0    6633.05120      46.61382      15.64525     257.50064        95        s4664n157e         0         0         0         1           sdc        75           tot       1.00000  
      96  cha096                   0     164.77490      46.61548      15.61663     290.50010        96        s4664n157e         0         0         0         1           sdc        94           tot       1.00000  
      97  cha097                   0       0.40310      46.61530      15.64197     264.00009        97        s4664n157e         0         0         0         1           sdc       808           tot       1.00000  
      98  cha098                   0     164.86930      46.61554      15.61696     295.50009        98        s4664n157e         0         0         0         1           sdc        94           tot       1.00000  
      99  cha099                   0     100.52050      46.61487      15.61105     325.00009        99        s4664n157e         0         0         0         1           sdc       101           tot       1.00000  
     100  cha100                   0       3.18530      46.61791      15.62570     326.50004       100        s4664n157e         0         0         0         1           sdc       813           tot       1.00000  
     101  cha101                   0     137.95550      46.61579      15.61459     302.50009       101        s4664n157e         0         0         0         1           sdc        96           tot       1.00000  
     102  cha102                   0      20.75970      46.61577      15.65962     264.50010       102        s4664n157e         0         0         0         1           sdc       811           tot       1.00000  
     103  cha103                   0       5.89902      46.61645      15.59212     498.50009       103        s4664n157e         0         0         0         1           sdc       812           tot       1.00000  
     104  cha104                   0       4.91640      46.61698      15.52117     654.50012       104        s4664n157e         0         0         0         1           sdc       159           tot       1.00000  
     105  cha105                   0       2.97060      46.61726      15.52171     650.50012       105        s4664n157e         0         0         0         1           sdc       159           tot       1.00000  
     106  cha106                   0       5.44030      46.61678      15.59742     440.00009       106        s4664n157e         0         0         0         1           sdc       133           tot       1.00000  
     107  cha107                   0       5.53940      46.61641      15.58959     492.50009       107        s4664n157e         0         0         0         1           sdc       812           tot       1.00000  
     108  cha108                   0      21.42060      46.61724      15.60685     395.00004       108        s4664n157e         0         0         0         1           sdc       814           tot       1.00000  
     109  cha109                   0       1.06260      46.61720      15.64060     261.00084       109        s4664n157e         0         0         0         1           sdc       111           tot       1.00000  
     110  cha110                   0     260.80540      46.61460      15.62355     291.50009       110        s4664n157e         0         0         0         1           sdc       810           tot       1.00000  
     111  cha111                   0    6577.28040      46.61678      15.64531     258.50025       111        s4664n157e         0         0         0         1           sdc        95           tot       1.00000  
     112  cha112                   0      14.79960      46.61787      15.62044     321.50000       112        s4664n157e         0         0         0         1           sdc       110           tot       1.00000  
     113  cha113                   0       6.44060      46.61905      15.61462     373.50005       113        s4664n157e         0         0         0         1           sdc       818           tot       1.00000  
     114  cha114                   0       5.00760      46.61804      15.62629     328.50009       114        s4664n157e         0         0         0         1           sdc       813           tot       1.00000  
     115  cha115                   0    6568.34416      46.61796      15.64195     258.50074       115        s4664n157e         0         0         0         1           sdc       111           tot       1.00000  
     116  cha116                   0       7.00710      46.61781      15.60970     369.50004       116        s4664n157e         0         0         0         1           sdc       814           tot       1.00000  
     117  cha117                   0     667.67660      46.61710      15.66109     258.50034       117        s4664n157e         0         0         0         1           sdc       811           tot       1.00000  
     118  cha118                   0      10.61080      46.61804      15.63657     262.50013       118        s4664n157e         0         0         0         1           sdc       123           tot       1.00000  
     119  cha119                   0      14.12100      46.61836      15.63488     262.50084       119        s4664n157e         0         0         0         1           sdc       122           tot       1.00000  
     120  cha120                   0       0.56900      46.61858      15.66052     261.00056       120        s4664n157e         0         0         0         1           sdc       815           tot       1.00000  
     121  cha121                   0      24.66160      46.61937      15.64546     264.00034       121        s4664n157e         0         0         0         1           sdc       816           tot       1.00000  
     122  cha122                   0    6430.90680      46.61883      15.63623     261.00041       122        s4664n157e         0         0         0         1           sdc       123           tot       1.00000  
     123  cha123                   0    6451.00160      46.61877      15.63930     260.50011       123        s4664n157e         0         0         0         1           sdc       115           tot       1.00000  
     124  cha124                   0       0.96400      46.61882      15.64488     262.00066       124        s4664n157e         0         0         0         1           sdc       816           tot       1.00000  
     125  cha125                   0       3.62240      46.61760      15.51578     644.50012       125        s4664n157e         0         0         0         1           sdc       135           tot       1.00000  
     126  cha126                   0     115.42430      46.61876      15.64160     261.00009       126        s4664n157e         0         0         0         1           sdc       115           tot       1.00000  
     127  cha127                   0     114.25150      46.61893      15.64277     262.50020       127        s4664n157e         0         0         0         1           sdc       126           tot       1.00000  
     128  cha128                   0       2.01150      46.61977      15.51449     603.50011       128        s4664n157e         0         0         0         1           sdc       817           tot       1.00000  
     129  cha129                   0       4.08260      46.61881      15.61658     343.50000       129        s4664n157e         0         0         0         1           sdc       818           tot       1.00000  
     130  cha130                   0      11.55880      46.61859      15.62094     320.00008       130        s4664n157e         0         0         0         1           sdc       110           tot       1.00000  
     131  cha131                   0    6414.46120      46.61910      15.63481     261.00064       131        s4664n157e         0         0         0         1           sdc       122           tot       1.00000  
     132  cha132                   0       6.67890      46.61904      15.63331     264.00041       132        s4664n157e         0         0         0         1           sdc       131           tot       1.00000  
     133  cha133                   0       8.91640      46.61852      15.59799     409.50009       133        s4664n157e         0         0         0         1           sdc       138           tot       1.00000  
     134  cha134                   0       2.27402      46.61964      15.62005     348.00004       134        s4664n157e         0         0         0         1           sdc       130           tot       1.00000  
     135  cha135                   0      20.09430      46.62009      15.51617     581.50006       135        s4664n157e         0         0         0         1           sdc       153           tot       1.00000  
     136  cha136                   0      26.15730      46.61880      15.51687     622.50000       136        s4664n157e         0         0         0         1           sdc       153           tot       1.00000  
     137  cha137                   0       1.79370      46.62009      15.51458     605.50011       137        s4664n157e         0         0         0         1           sdc       817           tot       1.00000  