exco_om.exc: file was written by SWATprepR R package 2025-01-10 12:53:32.913104
name                         flo            sed           orgn           sedp            no3           solp           chla            nh3            no2           cbod            dox           sand           silt           clay            sag            lag         gravel            tmp
Dobrenje                   13.42              0           1.65           0.27            0.7           0.67          1e-04           1.05           0.07           3.12          17.18              0              0              0              0              0              0              0
Svecina                    13.15              0           1.62           0.26           0.69           0.66          1e-04           1.03           0.07           3.06          16.83              0              0              0              0              0              0              0
ZgKungota                  95.89           0.02          11.79           1.92           5.02           4.79          7e-04           7.53            0.5          22.32         122.74              0              0              0              0              0              0              0
