exco.con: file was written by SWATprepR R package 2025-01-10 12:53:32.913104
        id       name     gis_id       area        lat        lon       elev       exco        wst        cst       ovfl       rule    out_tot    obj_typ     obj_id    hyd_typ       frac
         1   Dobrenje          0    0.00001      46.61      15.66  255.50176          1       null          0          0          0          1        sdc         63        tot          1
         2    Svecina          0    0.00001      46.66      15.59        325          2       null          0          0          0          1        sdc        642        tot          1
         3  ZgKungota          0    0.00001      46.63      15.62  273.00026          3       null          0          0          0          1        sdc        848        tot          1
