exco.exc: file was written by SWATprepR R package 2025-01-10 12:53:32.913104
name                                 om            pest            path            hmet            salt
Dobrenje                       Dobrenje            null            null            null            null
Svecina                         Svecina            null            null            null            null
ZgKungota                     ZgKungota            null            null            null            null
