hmd.cli: Relative humidity file names - file written by SWATprepR R package 2025-01-10 12:34:49.029754
filename
sta_id1.hmd
sta_id2.hmd
