hru.con: written by SWAT+ editor v2.1.0 on 2025-01-10 12:35 for SWAT+ rev.2.1.4
      id  name                gis_id          area           lat           lon          elev       hru               wst       cst      ovfl      rule   out_tot  
       1  hru0001                  0       0.22983      46.63837      15.64918     339.78460         1        s4664n157e         0         0         0         0  
       2  hru0002                  0       0.40121      46.65056      15.56813     306.82494         2        s4664n157e         0         0         0         0  
       3  hru0003                  0       0.40569      46.64728      15.55106     299.62130         3        s4664n157e         0         0         0         0  
       4  hru0004                  0       0.37518      46.63817      15.55149     412.06127         4        s4664n157e         0         0         0         0  
       5  hru0005                  0       0.20644      46.66991      15.57926     317.12875         5        s4664n157e         0         0         0         0  
       6  hru0006                  0       1.97340      46.64461      15.56433     295.90657         6        s4664n157e         0         0         0         0  
       7  hru0007                  0       1.16465      46.64349      15.56466     297.89431         7        s4664n157e         0         0         0         0  
       8  hru0008                  0       0.22644      46.67056      15.57464     309.73153         8        s4664n157e         0         0         0         0  
       9  hru0009                  0       0.02392      46.66547      15.57343     340.42562         9        s4664n157e         0         0         0         0  
      10  hru0010                  0       0.40613      46.65516      15.55269     315.06828        10        s4664n157e         0         0         0         0  
      11  hru0011                  0       1.44941      46.63430      15.56360     320.83887        11        s4664n157e         0         0         0         0  
      12  hru0012                  0       1.80308      46.67717      15.56859     360.43625        12        s4664n157e         0         0         0         0  
      13  hru0013                  0       0.05360      46.67084      15.61983     377.52514        13        s4664n157e         0         0         0         0  
      14  hru0014                  0       0.61949      46.65175      15.64111     325.33473        14        s4664n157e         0         0         0         0  
      15  hru0015                  0       1.32241      46.61483      15.66348     259.67687        15        s4664n157e         0         0         0         0  
      16  hru0016                  0       0.08254      46.62617      15.63527     269.65306        16        s4664n157e         0         0         0         0  
      17  hru0017                  0       0.52209      46.66086      15.60710     301.75450        17        s4664n157e         0         0         0         0  
      18  hru0018                  0       0.34043      46.66230      15.60777     296.87765        18        s4664n157e         0         0         0         0  
      19  hru0019                  0       0.70861      46.66665      15.56831     347.55588        19        s4664n157e         0         0         0         0  
      20  hru0020                  0       3.11038      46.65552      15.56538     346.20547        20        s4664n157e         0         0         0         0  
      21  hru0021                  0       2.07640      46.62171      15.55021     538.81609        21        s4664n157e         0         0         0         0  
      22  hru0022                  0       0.59898      46.60887      15.66534     275.57291        22        s4664n157e         0         0         0         0  
      23  hru0023                  0       0.11508      46.63359      15.60664     288.91652        23        s4664n157e         0         0         0         0  
      24  hru0024                  0       0.02330      46.66318      15.64871     373.27897        24        s4664n157e         0         0         0         0  
      25  hru0025                  0       0.49576      46.63237      15.63688     270.31453        25        s4664n157e         0         0         0         0  
      26  hru0026                  0       0.28724      46.63189      15.64751     356.36468        26        s4664n157e         0         0         0         0  
      27  hru0027                  0       0.30741      46.64799      15.55832     315.89545        27        s4664n157e         0         0         0         0  
      28  hru0028                  0       1.84400      46.63854      15.57408     301.20853        28        s4664n157e         0         0         0         0  
      29  hru0029                  0       0.07728      46.67097      15.56284     408.29884        29        s4664n157e         0         0         0         0  
      30  hru0030                  0       0.04522      46.66917      15.64150     348.44639        30        s4664n157e         0         0         0         0  
      31  hru0031                  0       0.40996      46.65873      15.62100     347.86177        31        s4664n157e         0         0         0         0  
      32  hru0032                  0       1.49902      46.64622      15.65260     310.57792        32        s4664n157e         0         0         0         0  
      33  hru0033                  0       0.06112      46.66188      15.63104     408.86557        33        s4664n157e         0         0         0         0  
      34  hru0034                  0       0.67907      46.67268      15.57118     317.33010        34        s4664n157e         0         0         0         0  
      35  hru0035                  0       0.97634      46.60509      15.64241     260.07180        35        s4664n157e         0         0         0         0  
      36  hru0036                  0       0.34817      46.65218      15.56606     305.12003        36        s4664n157e         0         0         0         0  
      37  hru0037                  0       5.64269      46.64489      15.61413     274.82559        37        s4664n157e         0         0         0         0  
      38  hru0038                  0       0.27249      46.64521      15.56966     290.29121        38        s4664n157e         0         0         0         0  
      39  hru0039                  0       0.14410      46.68414      15.58543     468.84712        39        s4664n157e         0         0         0         0  
      40  hru0040                  0       2.70186      46.60746      15.64268     260.16604        40        s4664n157e         0         0         0         0  
      41  hru0041                  0       4.89757      46.67234      15.58982     328.60237        41        s4664n157e         0         0         0         0  
      42  hru0042                  0       0.03348      46.66125      15.63230     413.60417        42        s4664n157e         0         0         0         0  
      43  hru0043                  0       0.03277      46.65300      15.57322     368.42378        43        s4664n157e         0         0         0         0  
      44  hru0044                  0       1.12790      46.67616      15.58150     389.27748        44        s4664n157e         0         0         0         0  
      45  hru0045                  0       2.46662      46.67787      15.60535     310.31435        45        s4664n157e         0         0         0         0  
      46  hru0046                  0       0.79763      46.61524      15.61032     356.05766        46        s4664n157e         0         0         0         0  
      47  hru0047                  0       0.02170      46.64184      15.56878     334.16972        47        s4664n157e         0         0         0         0  
      48  hru0048                  0       0.43061      46.65747      15.57837     301.33163        48        s4664n157e         0         0         0         0  
      49  hru0049                  0       2.30180      46.63850      15.59946     276.48336        49        s4664n157e         0         0         0         0  
      50  hru0050                  0       0.34974      46.67003      15.60824     301.89760        50        s4664n157e         0         0         0         0  
      51  hru0051                  0       1.46094      46.62407      15.53861     590.76089        51        s4664n157e         0         0         0         0  
      52  hru0052                  0       0.80136      46.68296      15.59617     442.01810        52        s4664n157e         0         0         0         0  
      53  hru0053                  0       0.05926      46.67481      15.57923     429.17707        53        s4664n157e         0         0         0         0  
      54  hru0054                  0       0.47441      46.67961      15.59073     347.74388        54        s4664n157e         0         0         0         0  
      55  hru0055                  0       0.44548      46.64619      15.55318     304.04865        55        s4664n157e         0         0         0         0  
      56  hru0056                  0       0.53401      46.65693      15.55106     321.79023        56        s4664n157e         0         0         0         0  
      57  hru0057                  0       0.27043      46.64311      15.58329     284.91131        57        s4664n157e         0         0         0         0  
      58  hru0058                  0       0.57161      46.64989      15.55345     305.38793        58        s4664n157e         0         0         0         0  
      59  hru0059                  0       0.66735      46.64448      15.55442     296.90664        59        s4664n157e         0         0         0         0  
      60  hru0060                  0       0.68762      46.64749      15.54984     300.66909        60        s4664n157e         0         0         0         0  
      61  hru0061                  0       1.45041      46.65443      15.55333     318.63367        61        s4664n157e         0         0         0         0  
      62  hru0062                  0       0.85342      46.65557      15.55138     309.08519        62        s4664n157e         0         0         0         0  
      63  hru0063                  0       0.04639      46.67088      15.56639     400.35914        63        s4664n157e         0         0         0         0  
      64  hru0064                  0       0.37981      46.64003      15.62449     337.16636        64        s4664n157e         0         0         0         0  
      65  hru0065                  0       0.14176      46.63655      15.55294     413.75071        65        s4664n157e         0         0         0         0  
      66  hru0066                  0       0.35690      46.64294      15.55324     330.96836        66        s4664n157e         0         0         0         0  
      67  hru0067                  0       0.49622      46.61819      15.63535     264.00000        67        s4664n157e         0         0         0         0  
      68  hru0068                  0       0.31100      46.61790      15.63616     263.89653        68        s4664n157e         0         0         0         0  
      69  hru0069                  0       0.01584      46.64869      15.57452     339.35443        69        s4664n157e         0         0         0         0  
      70  hru0070                  0       0.55519      46.60174      15.65420     257.86908        70        s4664n157e         0         0         0         0  
      71  hru0071                  0       0.26621      46.65479      15.61990     322.81818        71        s4664n157e         0         0         0         0  
      72  hru0072                  0       0.74456      46.64216      15.57536     323.84431        72        s4664n157e         0         0         0         0  
      73  hru0073                  0       0.34964      46.64592      15.55763     301.89520        73        s4664n157e         0         0         0         0  
      74  hru0074                  0       0.11938      46.64741      15.57960     290.96315        74        s4664n157e         0         0         0         0  
      75  hru0075                  0       0.20277      46.67023      15.56482     413.86555        75        s4664n157e         0         0         0         0  
      76  hru0076                  0       0.36012      46.64662      15.55886     300.95981        76        s4664n157e         0         0         0         0  
      77  hru0077                  0       0.37858      46.64354      15.55948     355.65515        77        s4664n157e         0         0         0         0  
      78  hru0078                  0       0.72765      46.64416      15.55622     296.20019        78        s4664n157e         0         0         0         0  
      79  hru0079                  0       0.42198      46.64530      15.55463     299.56781        79        s4664n157e         0         0         0         0  
      80  hru0080                  0       0.53894      46.64733      15.56678     323.49954        80        s4664n157e         0         0         0         0  
      81  hru0081                  0       1.10370      46.65824      15.56088     355.00987        81        s4664n157e         0         0         0         0  
      82  hru0082                  0       0.48039      46.66975      15.57138     344.42967        82        s4664n157e         0         0         0         0  
      83  hru0083                  0       1.16136      46.64299      15.57892     287.11772        83        s4664n157e         0         0         0         0  
      84  hru0084                  0       0.26331      46.62244      15.56188     554.31122        84        s4664n157e         0         0         0         0  
      85  hru0085                  0       0.07207      46.62175      15.66163     318.12639        85        s4664n157e         0         0         0         0  
      86  hru0086                  0       1.45872      46.64999      15.57303     348.97915        86        s4664n157e         0         0         0         0  
      87  hru0087                  0       0.43170      46.64384      15.58080     285.07419        87        s4664n157e         0         0         0         0  
      88  hru0088                  0       0.69259      46.64583      15.57465     298.77348        88        s4664n157e         0         0         0         0  
      89  hru0089                  0       0.89038      46.63811      15.57211     304.50388        89        s4664n157e         0         0         0         0  
      90  hru0090                  0       0.06048      46.63696      15.55506     414.74917        90        s4664n157e         0         0         0         0  
      91  hru0091                  0       0.22282      46.64178      15.56514     323.01620        91        s4664n157e         0         0         0         0  
      92  hru0092                  0       0.21485      46.63640      15.54774     408.88412        92        s4664n157e         0         0         0         0  
      93  hru0093                  0       0.13851      46.65863      15.57125     366.07570        93        s4664n157e         0         0         0         0  
      94  hru0094                  0       0.93331      46.65127      15.56943     312.64959        94        s4664n157e         0         0         0         0  
      95  hru0095                  0       0.22599      46.65736      15.56000     332.05352        95        s4664n157e         0         0         0         0  
      96  hru0096                  0       0.03409      46.63603      15.62938     340.84257        96        s4664n157e         0         0         0         0  
      97  hru0097                  0       0.45307      46.64561      15.55786     297.04594        97        s4664n157e         0         0         0         0  
      98  hru0098                  0       3.18037      46.64483      15.57246     289.83547        98        s4664n157e         0         0         0         0  
      99  hru0099                  0       0.12857      46.62045      15.54407     599.57710        99        s4664n157e         0         0         0         0  
     100  hru0100                  0       0.38658      46.65637      15.56756     357.47258       100        s4664n157e         0         0         0         0  
     101  hru0101                  0       0.48571      46.65904      15.57705     302.04827       101        s4664n157e         0         0         0         0  
     102  hru0102                  0       0.04078      46.62881      15.55261     391.84559       102        s4664n157e         0         0         0         0  
     103  hru0103                  0       0.70182      46.63990      15.57812     294.49131       103        s4664n157e         0         0         0         0  
     104  hru0104                  0       0.19860      46.63131      15.66034     326.31203       104        s4664n157e         0         0         0         0  
     105  hru0105                  0       0.61929      46.64697      15.57966     289.78661       105        s4664n157e         0         0         0         0  
     106  hru0106                  0       0.03136      46.62927      15.58333     458.28205       106        s4664n157e         0         0         0         0  
     107  hru0107                  0       0.14707      46.64377      15.60369     346.15568       107        s4664n157e         0         0         0         0  
     108  hru0108                  0       0.38969      46.64171      15.61950     319.36833       108        s4664n157e         0         0         0         0  
     109  hru0109                  0       0.13097      46.60990      15.60590     488.67838       109        s4664n157e         0         0         0         0  
     110  hru0110                  0       0.88411      46.66363      15.57499     334.04793       110        s4664n157e         0         0         0         0  
     111  hru0111                  0       0.28481      46.67895      15.58631     340.92729       111        s4664n157e         0         0         0         0  
     112  hru0112                  0       0.15302      46.64333      15.58448     296.74984       112        s4664n157e         0         0         0         0  
     113  hru0113                  0       0.06583      46.64827      15.58376     357.69044       113        s4664n157e         0         0         0         0  
     114  hru0114                  0       2.21561      46.63080      15.61252     386.64942       114        s4664n157e         0         0         0         0  
     115  hru0115                  0       0.00972      46.65925      15.60457     341.90816       115        s4664n157e         0         0         0         0  
     116  hru0116                  0       0.34422      46.64732      15.61251     281.77620       116        s4664n157e         0         0         0         0  
     117  hru0117                  0       0.43707      46.65735      15.61217     289.06200       117        s4664n157e         0         0         0         0  
     118  hru0118                  0       2.88654      46.67570      15.58924     332.71548       118        s4664n157e         0         0         0         0  
     119  hru0119                  0       2.21242      46.64216      15.63978     316.76719       119        s4664n157e         0         0         0         0  
     120  hru0120                  0       0.89302      46.60884      15.63885     263.25926       120        s4664n157e         0         0         0         0  
     121  hru0121                  0       1.56024      46.65380      15.61063     284.93218       121        s4664n157e         0         0         0         0  
     122  hru0122                  0       0.01086      46.67161      15.63750     348.95495       122        s4664n157e         0         0         0         0  
     123  hru0123                  0       0.79810      46.65815      15.59736     288.02094       123        s4664n157e         0         0         0         0  
     124  hru0124                  0       0.41611      46.60917      15.62923     269.31009       124        s4664n157e         0         0         0         0  
     125  hru0125                  0       0.15911      46.61348      15.62575     286.05019       125        s4664n157e         0         0         0         0  
     126  hru0126                  0       1.66054      46.66979      15.61295     340.55202       126        s4664n157e         0         0         0         0  
     127  hru0127                  0       1.09712      46.63680      15.60927     273.15888       127        s4664n157e         0         0         0         0  
     128  hru0128                  0       7.63041      46.60634      15.65728     272.64975       128        s4664n157e         0         0         0         0  
     129  hru0129                  0       6.13016      46.60215      15.64902     258.02938       129        s4664n157e         0         0         0         0  
     130  hru0130                  0       0.07898      46.64979      15.61457     285.11802       130        s4664n157e         0         0         0         0  
     131  hru0131                  0       0.09453      46.61629      15.61518     317.08761       131        s4664n157e         0         0         0         0  
     132  hru0132                  0       0.15084      46.61573      15.59450     514.31453       132        s4664n157e         0         0         0         0  
     133  hru0133                  0       0.26683      46.65001      15.56804     299.44336       133        s4664n157e         0         0         0         0  
     134  hru0134                  0       2.70632      46.66354      15.55297     350.19673       134        s4664n157e         0         0         0         0  
     135  hru0135                  0       0.45031      46.65294      15.56410     306.26522       135        s4664n157e         0         0         0         0  
     136  hru0136                  0       0.27401      46.63623      15.62414     279.61101       136        s4664n157e         0         0         0         0  
     137  hru0137                  0       0.15689      46.61691      15.59321     502.56147       137        s4664n157e         0         0         0         0  
     138  hru0138                  0       1.15927      46.67277      15.58009     363.31797       138        s4664n157e         0         0         0         0  
     139  hru0139                  0       0.07208      46.64181      15.65623     325.17753       139        s4664n157e         0         0         0         0  
     140  hru0140                  0       0.67257      46.64323      15.55503     301.82865       140        s4664n157e         0         0         0         0  
     141  hru0141                  0       0.65092      46.63935      15.57635     295.45963       141        s4664n157e         0         0         0         0  
     142  hru0142                  0       1.65387      46.67421      15.58820     319.62991       142        s4664n157e         0         0         0         0  
     143  hru0143                  0       1.21678      46.63585      15.61334     272.24643       143        s4664n157e         0         0         0         0  
     144  hru0144                  0       0.35872      46.65319      15.56533     310.60000       144        s4664n157e         0         0         0         0  
     145  hru0145                  0       0.04724      46.63911      15.57444     301.72611       145        s4664n157e         0         0         0         0  
     146  hru0146                  0       0.09483      46.61739      15.60542     413.72910       146        s4664n157e         0         0         0         0  
     147  hru0147                  0       0.16015      46.65838      15.56986     373.71589       147        s4664n157e         0         0         0         0  
     148  hru0148                  0       1.09559      46.66961      15.61155     320.38765       148        s4664n157e         0         0         0         0  
     149  hru0149                  0       4.36170      46.60319      15.62291     322.36471       149        s4664n157e         0         0         0         0  
     150  hru0150                  0       0.01862      46.64237      15.65371     301.60638       150        s4664n157e         0         0         0         0  
     151  hru0151                  0       0.20017      46.62073      15.51249     660.48250       151        s4664n157e         0         0         0         0  
     152  hru0152                  0       0.12654      46.65774      15.56971     363.52035       152        s4664n157e         0         0         0         0  
     153  hru0153                  0       0.11705      46.65821      15.62534     290.60866       153        s4664n157e         0         0         0         0  
     154  hru0154                  0       0.30985      46.65687      15.61916     304.74256       154        s4664n157e         0         0         0         0  
     155  hru0155                  0       0.32374      46.62996      15.55647     340.31543       155        s4664n157e         0         0         0         0  
     156  hru0156                  0       0.21077      46.61759      15.59048     497.34384       156        s4664n157e         0         0         0         0  
     157  hru0157                  0       0.84255      46.61814      15.59427     470.13638       157        s4664n157e         0         0         0         0  
     158  hru0158                  0       0.39259      46.64291      15.63285     341.03614       158        s4664n157e         0         0         0         0  
     159  hru0159                  0       0.15215      46.68578      15.60142     361.50394       159        s4664n157e         0         0         0         0  
     160  hru0160                  0       0.63857      46.68477      15.60355     346.44852       160        s4664n157e         0         0         0         0  
     161  hru0161                  0       0.16870      46.66302      15.58313     328.10801       161        s4664n157e         0         0         0         0  
     162  hru0162                  0       0.12161      46.63768      15.56163     377.73289       162        s4664n157e         0         0         0         0  
     163  hru0163                  0       0.78964      46.64572      15.56523     292.03343       163        s4664n157e         0         0         0         0  
     164  hru0164                  0       1.21625      46.61804      15.66112     261.38939       164        s4664n157e         0         0         0         0  
     165  hru0165                  0       0.15580      46.68457      15.59371     452.67672       165        s4664n157e         0         0         0         0  
     166  hru0166                  0       0.03073      46.63566      15.62487     291.30392       166        s4664n157e         0         0         0         0  
     167  hru0167                  0       0.46095      46.67463      15.61553     329.66847       167        s4664n157e         0         0         0         0  
     168  hru0168                  0       0.17073      46.64390      15.61555     276.41066       168        s4664n157e         0         0         0         0  
     169  hru0169                  0       0.03463      46.62153      15.63592     306.47826       169        s4664n157e         0         0         0         0  
     170  hru0170                  0       0.13495      46.67278      15.59252     352.76501       170        s4664n157e         0         0         0         0  
     171  hru0171                  0       0.64875      46.65691      15.61580     289.02529       171        s4664n157e         0         0         0         0  
     172  hru0172                  0       0.03520      46.63283      15.57894     422.64286       172        s4664n157e         0         0         0         0  
     173  hru0173                  0       0.04636      46.63455      15.65719     269.97845       173        s4664n157e         0         0         0         0  
     174  hru0174                  0       0.33927      46.66492      15.60007     394.18101       174        s4664n157e         0         0         0         0  
     175  hru0175                  0       1.15254      46.66966      15.60937     294.43005       175        s4664n157e         0         0         0         0  
     176  hru0176                  0       0.04742      46.66221      15.62688     325.67437       176        s4664n157e         0         0         0         0  
     177  hru0177                  0       0.10953      46.66464      15.61310     321.44313       177        s4664n157e         0         0         0         0  
     178  hru0178                  0       0.13838      46.62326      15.54893     515.17800       178        s4664n157e         0         0         0         0  
     179  hru0179                  0       0.25070      46.67004      15.57183     340.03918       179        s4664n157e         0         0         0         0  
     180  hru0180                  0       0.25538      46.65355      15.64476     297.15701       180        s4664n157e         0         0         0         0  
     181  hru0181                  0       0.03363      46.64752      15.60196     384.56250       181        s4664n157e         0         0         0         0  
     182  hru0182                  0       0.48476      46.64357      15.65525     329.68550       182        s4664n157e         0         0         0         0  