hydrology.res: written by SWAT+ editor v2.1.0 on 2025-01-10 12:35 for SWAT+ rev.2.1.4
name                 yr_op    mon_op       area_ps        vol_ps       area_es        vol_es             k       evap_co       shp_co1       shp_co2  
res01                    1         1       0.04124       0.41236       0.04742       0.47421       0.00000       0.60000       0.00000       0.00000  
res02                    1         1       0.04764       0.47645       0.05479       0.54791       0.00000       0.60000       0.00000       0.00000  
res03                    1         1       0.04248       0.42480       0.04885       0.48853       0.00000       0.60000       0.00000       0.00000  
res04                    1         1       0.03389       0.33893       0.03898       0.38977       0.00000       0.60000       0.00000       0.00000  
res05                    1         1       0.04429       0.44294       0.05094       0.50938       0.00000       0.60000       0.00000       0.00000  
res06                    1         1       0.07811       0.78106       0.08982       0.89822       0.00000       0.60000       0.00000       0.00000  
res07                    1         1       0.18389       1.83893       0.21148       2.11477       0.00000       0.60000       0.00000       0.00000  
res08                    1         1       0.04569       0.45694       0.05255       0.52548       0.00000       0.60000       0.00000       0.00000  
res09                    1         1       0.07274       0.72736       0.08365       0.83647       0.00000       0.60000       0.00000       0.00000  
res10                    1         1       0.03923       0.39230       0.04511       0.45115       0.00000       0.60000       0.00000       0.00000  
res11                    1         1       0.10003       1.00025       0.11503       1.15029       0.00000       0.60000       0.00000       0.00000  
res12                    1         1       0.02569       0.25691       0.02955       0.29545       0.00000       0.60000       0.00000       0.00000  
res13                    1         1       0.03979       0.39792       0.04576       0.45761       0.00000       0.60000       0.00000       0.00000  
res14                    1         1       0.05827       0.58268       0.06701       0.67008       0.00000       0.60000       0.00000       0.00000  
res15                    1         1       0.13715       1.37147       0.15772       1.57719       0.00000       0.60000       0.00000       0.00000  
res16                    1         1       0.00687       0.06873       0.00790       0.07904       0.00000       0.60000       0.00000       0.00000  
res17                    1         1       0.01854       0.18538       0.02132       0.21318       0.00000       0.60000       0.00000       0.00000  
res18                    1         1       0.03093       0.30927       0.03557       0.35567       0.00000       0.60000       0.00000       0.00000  
res19                    1         1       0.04412       0.44120       0.05074       0.50738       0.00000       0.60000       0.00000       0.00000  
res20                    1         1       0.02931       0.29309       0.03371       0.33705       0.00000       0.60000       0.00000       0.00000  
res21                    1         1       0.03081       0.30815       0.03544       0.35437       0.00000       0.60000       0.00000       0.00000  
res22                    1         1       0.09685       0.96849       0.11138       1.11376       0.00000       0.60000       0.00000       0.00000  
res23                    1         1       0.01813       0.18134       0.02085       0.20854       0.00000       0.60000       0.00000       0.00000  
res24                    1         1       0.05745       0.57447       0.06606       0.66064       0.00000       0.60000       0.00000       0.00000  
res25                    1         1       0.12475       1.24746       0.14346       1.43458       0.00000       0.60000       0.00000       0.00000  
res26                    1         1       0.05729       0.57290       0.06588       0.65883       0.00000       0.60000       0.00000       0.00000  
res27                    1         1       0.03266       0.32664       0.03756       0.37564       0.00000       0.60000       0.00000       0.00000  
res28                    1         1       0.03420       0.34200       0.03933       0.39330       0.00000       0.60000       0.00000       0.00000  
res29                    1         1       0.05058       0.50576       0.05816       0.58162       0.00000       0.60000       0.00000       0.00000  
res30                    1         1       0.07862       0.78621       0.09041       0.90414       0.00000       0.60000       0.00000       0.00000  
res31                    1         1       0.06382       0.63822       0.07339       0.73395       0.00000       0.60000       0.00000       0.00000  
res32                    1         1       0.01067       0.10672       0.01227       0.12273       0.00000       0.60000       0.00000       0.00000  
res33                    1         1       0.01879       0.18786       0.02160       0.21604       0.00000       0.60000       0.00000       0.00000  
res34                    1         1       0.04927       0.49269       0.05666       0.56659       0.00000       0.60000       0.00000       0.00000  
res35                    1         1       0.08454       0.84543       0.09722       0.97225       0.00000       0.60000       0.00000       0.00000  
res36                    1         1       0.01962       0.19616       0.02256       0.22559       0.00000       0.60000       0.00000       0.00000  
res37                    1         1       0.02961       0.29611       0.03405       0.34052       0.00000       0.60000       0.00000       0.00000  
res38                    1         1       0.01473       0.14732       0.01694       0.16941       0.00000       0.60000       0.00000       0.00000  
res39                    1         1       0.03618       0.36185       0.04161       0.41612       0.00000       0.60000       0.00000       0.00000  
res40                    1         1       0.03365       0.33649       0.03870       0.38696       0.00000       0.60000       0.00000       0.00000  
res41                    1         1       0.09193       0.91933       0.10572       1.05722       0.00000       0.60000       0.00000       0.00000  
res42                    1         1       0.06560       0.65597       0.07544       0.75436       0.00000       0.60000       0.00000       0.00000  
res43                    1         1       0.05915       0.59149       0.06802       0.68021       0.00000       0.60000       0.00000       0.00000  
res44                    1         1       0.38627       3.86270       0.44421       4.44211       0.00000       0.60000       0.00000       0.00000  
res45                    1         1       0.23973       2.39734       0.27569       2.75694       0.00000       0.60000       0.00000       0.00000  
res46                    1         1       0.11818       1.18177       0.13590       1.35903       0.00000       0.60000       0.00000       0.00000  
res47                    1         1       0.12014       1.20143       0.13816       1.38165       0.00000       0.60000       0.00000       0.00000  
res48                    1         1       0.05005       0.50054       0.05756       0.57562       0.00000       0.60000       0.00000       0.00000  
res49                    1         1       0.16232       1.62320       0.18667       1.86668       0.00000       0.60000       0.00000       0.00000  
res50                    1         1       0.04071       0.40710       0.04682       0.46816       0.00000       0.60000       0.00000       0.00000  
res51                    1         1       0.05866       0.58656       0.06745       0.67455       0.00000       0.60000       0.00000       0.00000  
res52                    1         1       0.03461       0.34615       0.03981       0.39807       0.00000       0.60000       0.00000       0.00000  
