ls_unit.ele: written by SWAT+ editor v2.1.0 on 2025-01-10 12:35 for SWAT+ rev.2.1.4
      id  name                   obj_typ  obj_typ_no      bsn_frac      sub_frac      reg_frac  
       1  hru0001                    hru           1     2.6690E-5       1.00000       0.00000  
       2  hru0002                    hru           2     4.6594E-5       1.00000       0.00000  
       3  hru0003                    hru           3     4.7114E-5       1.00000       0.00000  
       4  hru0004                    hru           4     4.3571E-5       1.00000       0.00000  
       5  hru0005                    hru           5     2.3974E-5       1.00000       0.00000  
       6  hru0006                    hru           6     2.2918E-4       1.00000       0.00000  
       7  hru0007                    hru           7     1.3525E-4       1.00000       0.00000  
       8  hru0008                    hru           8     2.6297E-5       1.00000       0.00000  
       9  hru0009                    hru           9     2.7774E-6       1.00000       0.00000  
      10  hru0010                    hru          10     4.7165E-5       1.00000       0.00000  
      11  hru0011                    hru          11     1.6832E-4       1.00000       0.00000  
      12  hru0012                    hru          12     2.0940E-4       1.00000       0.00000  
      13  hru0013                    hru          13     6.2249E-6       1.00000       0.00000  
      14  hru0014                    hru          14     7.1943E-5       1.00000       0.00000  
      15  hru0015                    hru          15     1.5357E-4       1.00000       0.00000  
      16  hru0016                    hru          16     9.5851E-6       1.00000       0.00000  
      17  hru0017                    hru          17     6.0632E-5       1.00000       0.00000  
      18  hru0018                    hru          18     3.9535E-5       1.00000       0.00000  
      19  hru0019                    hru          19     8.2293E-5       1.00000       0.00000  
      20  hru0020                    hru          20     3.6122E-4       1.00000       0.00000  
      21  hru0021                    hru          21     2.4114E-4       1.00000       0.00000  
      22  hru0022                    hru          22     6.9561E-5       1.00000       0.00000  
      23  hru0023                    hru          23     1.3365E-5       1.00000       0.00000  
      24  hru0024                    hru          24     2.7058E-6       1.00000       0.00000  
      25  hru0025                    hru          25     5.7574E-5       1.00000       0.00000  
      26  hru0026                    hru          26     3.3358E-5       1.00000       0.00000  
      27  hru0027                    hru          27     3.5700E-5       1.00000       0.00000  
      28  hru0028                    hru          28     2.1415E-4       1.00000       0.00000  
      29  hru0029                    hru          29     8.9742E-6       1.00000       0.00000  
      30  hru0030                    hru          30     5.2511E-6       1.00000       0.00000  
      31  hru0031                    hru          31     4.7610E-5       1.00000       0.00000  
      32  hru0032                    hru          32     1.7408E-4       1.00000       0.00000  
      33  hru0033                    hru          33     7.0986E-6       1.00000       0.00000  
      34  hru0034                    hru          34     7.8862E-5       1.00000       0.00000  
      35  hru0035                    hru          35     1.1338E-4       1.00000       0.00000  
      36  hru0036                    hru          36     4.0434E-5       1.00000       0.00000  
      37  hru0037                    hru          37     6.5530E-4       1.00000       0.00000  
      38  hru0038                    hru          38     3.1645E-5       1.00000       0.00000  
      39  hru0039                    hru          39     1.6734E-5       1.00000       0.00000  
      40  hru0040                    hru          40     3.1377E-4       1.00000       0.00000  
      41  hru0041                    hru          41     5.6877E-4       1.00000       0.00000  
      42  hru0042                    hru          42     3.8883E-6       1.00000       0.00000  
      43  hru0043                    hru          43     3.8059E-6       1.00000       0.00000  
      44  hru0044                    hru          44     1.3099E-4       1.00000       0.00000  
      45  hru0045                    hru          45     2.8645E-4       1.00000       0.00000  
      46  hru0046                    hru          46     9.2630E-5       1.00000       0.00000  
      47  hru0047                    hru          47     2.5200E-6       1.00000       0.00000  
      48  hru0048                    hru          48     5.0008E-5       1.00000       0.00000  
      49  hru0049                    hru          49     2.6731E-4       1.00000       0.00000  
      50  hru0050                    hru          50     4.0617E-5       1.00000       0.00000  
      51  hru0051                    hru          51     1.6966E-4       1.00000       0.00000  
      52  hru0052                    hru          52     9.3064E-5       1.00000       0.00000  
      53  hru0053                    hru          53     6.8815E-6       1.00000       0.00000  
      54  hru0054                    hru          54     5.5094E-5       1.00000       0.00000  
      55  hru0055                    hru          55     5.1734E-5       1.00000       0.00000  
      56  hru0056                    hru          56     6.2016E-5       1.00000       0.00000  
      57  hru0057                    hru          57     3.1405E-5       1.00000       0.00000  
      58  hru0058                    hru          58     6.6383E-5       1.00000       0.00000  
      59  hru0059                    hru          59     7.7501E-5       1.00000       0.00000  
      60  hru0060                    hru          60     7.9855E-5       1.00000       0.00000  
      61  hru0061                    hru          61     1.6844E-4       1.00000       0.00000  
      62  hru0062                    hru          62     9.9110E-5       1.00000       0.00000  
      63  hru0063                    hru          63     5.3873E-6       1.00000       0.00000  
      64  hru0064                    hru          64     4.4108E-5       1.00000       0.00000  
      65  hru0065                    hru          65     1.6463E-5       1.00000       0.00000  
      66  hru0066                    hru          66     4.1448E-5       1.00000       0.00000  
      67  hru0067                    hru          67     5.7627E-5       1.00000       0.00000  
      68  hru0068                    hru          68     3.6117E-5       1.00000       0.00000  
      69  hru0069                    hru          69     1.8396E-6       1.00000       0.00000  
      70  hru0070                    hru          70     6.4475E-5       1.00000       0.00000  
      71  hru0071                    hru          71     3.0915E-5       1.00000       0.00000  
      72  hru0072                    hru          72     8.6468E-5       1.00000       0.00000  
      73  hru0073                    hru          73     4.0604E-5       1.00000       0.00000  
      74  hru0074                    hru          74     1.3864E-5       1.00000       0.00000  
      75  hru0075                    hru          75     2.3548E-5       1.00000       0.00000  
      76  hru0076                    hru          76     4.1821E-5       1.00000       0.00000  
      77  hru0077                    hru          77     4.3965E-5       1.00000       0.00000  
      78  hru0078                    hru          78     8.4504E-5       1.00000       0.00000  
      79  hru0079                    hru          79     4.9005E-5       1.00000       0.00000  
      80  hru0080                    hru          80     6.2589E-5       1.00000       0.00000  
      81  hru0081                    hru          81     1.2818E-4       1.00000       0.00000  
      82  hru0082                    hru          82     5.5789E-5       1.00000       0.00000  
      83  hru0083                    hru          83     1.3487E-4       1.00000       0.00000  
      84  hru0084                    hru          84     3.0579E-5       1.00000       0.00000  
      85  hru0085                    hru          85     8.3696E-6       1.00000       0.00000  
      86  hru0086                    hru          86     1.6940E-4       1.00000       0.00000  
      87  hru0087                    hru          87     5.0134E-5       1.00000       0.00000  
      88  hru0088                    hru          88     8.0432E-5       1.00000       0.00000  
      89  hru0089                    hru          89     1.0340E-4       1.00000       0.00000  
      90  hru0090                    hru          90     7.0239E-6       1.00000       0.00000  
      91  hru0091                    hru          91     2.5877E-5       1.00000       0.00000  
      92  hru0092                    hru          92     2.4952E-5       1.00000       0.00000  
      93  hru0093                    hru          93     1.6085E-5       1.00000       0.00000  
      94  hru0094                    hru          94     1.0839E-4       1.00000       0.00000  
      95  hru0095                    hru          95     2.6245E-5       1.00000       0.00000  
      96  hru0096                    hru          96     3.9590E-6       1.00000       0.00000  
      97  hru0097                    hru          97     5.2616E-5       1.00000       0.00000  
      98  hru0098                    hru          98     3.6934E-4       1.00000       0.00000  
      99  hru0099                    hru          99     1.4931E-5       1.00000       0.00000  
     100  hru0100                    hru         100     4.4895E-5       1.00000       0.00000  
     101  hru0101                    hru         101     5.6406E-5       1.00000       0.00000  
     102  hru0102                    hru         102     4.7362E-6       1.00000       0.00000  
     103  hru0103                    hru         103     8.1504E-5       1.00000       0.00000  
     104  hru0104                    hru         104     2.3063E-5       1.00000       0.00000  
     105  hru0105                    hru         105     7.1919E-5       1.00000       0.00000  
     106  hru0106                    hru         106     3.6420E-6       1.00000       0.00000  
     107  hru0107                    hru         107     1.7080E-5       1.00000       0.00000  
     108  hru0108                    hru         108     4.5255E-5       1.00000       0.00000  
     109  hru0109                    hru         109     1.5210E-5       1.00000       0.00000  
     110  hru0110                    hru         110     1.0267E-4       1.00000       0.00000  
     111  hru0111                    hru         111     3.3076E-5       1.00000       0.00000  
     112  hru0112                    hru         112     1.7770E-5       1.00000       0.00000  
     113  hru0113                    hru         113     7.6455E-6       1.00000       0.00000  
     114  hru0114                    hru         114     2.5730E-4       1.00000       0.00000  
     115  hru0115                    hru         115     1.1283E-6       1.00000       0.00000  
     116  hru0116                    hru         116     3.9975E-5       1.00000       0.00000  
     117  hru0117                    hru         117     5.0758E-5       1.00000       0.00000  
     118  hru0118                    hru         118     3.3522E-4       1.00000       0.00000  
     119  hru0119                    hru         119     2.5693E-4       1.00000       0.00000  
     120  hru0120                    hru         120     1.0371E-4       1.00000       0.00000  
     121  hru0121                    hru         121     1.8120E-4       1.00000       0.00000  
     122  hru0122                    hru         122     1.2613E-6       1.00000       0.00000  
     123  hru0123                    hru         123     9.2685E-5       1.00000       0.00000  
     124  hru0124                    hru         124     4.8324E-5       1.00000       0.00000  
     125  hru0125                    hru         125     1.8478E-5       1.00000       0.00000  
     126  hru0126                    hru         126     1.9284E-4       1.00000       0.00000  
     127  hru0127                    hru         127     1.2741E-4       1.00000       0.00000  
     128  hru0128                    hru         128     8.8614E-4       1.00000       0.00000  
     129  hru0129                    hru         129     7.1191E-4       1.00000       0.00000  
     130  hru0130                    hru         130     9.1726E-6       1.00000       0.00000  
     131  hru0131                    hru         131     1.0978E-5       1.00000       0.00000  
     132  hru0132                    hru         132     1.7518E-5       1.00000       0.00000  
     133  hru0133                    hru         133     3.0988E-5       1.00000       0.00000  
     134  hru0134                    hru         134     3.1429E-4       1.00000       0.00000  
     135  hru0135                    hru         135     5.2295E-5       1.00000       0.00000  
     136  hru0136                    hru         136     3.1821E-5       1.00000       0.00000  
     137  hru0137                    hru         137     1.8220E-5       1.00000       0.00000  
     138  hru0138                    hru         138     1.3463E-4       1.00000       0.00000  
     139  hru0139                    hru         139     8.3704E-6       1.00000       0.00000  
     140  hru0140                    hru         140     7.8107E-5       1.00000       0.00000  
     141  hru0141                    hru         141     7.5593E-5       1.00000       0.00000  
     142  hru0142                    hru         142     1.9207E-4       1.00000       0.00000  
     143  hru0143                    hru         143     1.4131E-4       1.00000       0.00000  
     144  hru0144                    hru         144     4.1659E-5       1.00000       0.00000  
     145  hru0145                    hru         145     5.4856E-6       1.00000       0.00000  
     146  hru0146                    hru         146     1.1013E-5       1.00000       0.00000  
     147  hru0147                    hru         147     1.8599E-5       1.00000       0.00000  
     148  hru0148                    hru         148     1.2723E-4       1.00000       0.00000  
     149  hru0149                    hru         149     5.0654E-4       1.00000       0.00000  
     150  hru0150                    hru         150     2.1620E-6       1.00000       0.00000  
     151  hru0151                    hru         151     2.3246E-5       1.00000       0.00000  
     152  hru0152                    hru         152     1.4695E-5       1.00000       0.00000  
     153  hru0153                    hru         153     1.3593E-5       1.00000       0.00000  
     154  hru0154                    hru         154     3.5984E-5       1.00000       0.00000  
     155  hru0155                    hru         155     3.7597E-5       1.00000       0.00000  
     156  hru0156                    hru         156     2.4478E-5       1.00000       0.00000  
     157  hru0157                    hru         157     9.7847E-5       1.00000       0.00000  
     158  hru0158                    hru         158     4.5592E-5       1.00000       0.00000  
     159  hru0159                    hru         159     1.7670E-5       1.00000       0.00000  
     160  hru0160                    hru         160     7.4159E-5       1.00000       0.00000  
     161  hru0161                    hru         161     1.9591E-5       1.00000       0.00000  
     162  hru0162                    hru         162     1.4123E-5       1.00000       0.00000  
     163  hru0163                    hru         163     9.1703E-5       1.00000       0.00000  
     164  hru0164                    hru         164     1.4125E-4       1.00000       0.00000  
     165  hru0165                    hru         165     1.8093E-5       1.00000       0.00000  
     166  hru0166                    hru         166     3.5690E-6       1.00000       0.00000  
     167  hru0167                    hru         167     5.3531E-5       1.00000       0.00000  
     168  hru0168                    hru         168     1.9827E-5       1.00000       0.00000  
     169  hru0169                    hru         169     4.0212E-6       1.00000       0.00000  
     170  hru0170                    hru         170     1.5673E-5       1.00000       0.00000  
     171  hru0171                    hru         171     7.5342E-5       1.00000       0.00000  
     172  hru0172                    hru         172     4.0876E-6       1.00000       0.00000  
     173  hru0173                    hru         173     5.3836E-6       1.00000       0.00000  
     174  hru0174                    hru         174     3.9400E-5       1.00000       0.00000  
     175  hru0175                    hru         175     1.3385E-4       1.00000       0.00000  
     176  hru0176                    hru         176     5.5075E-6       1.00000       0.00000  
     177  hru0177                    hru         177     1.2720E-5       1.00000       0.00000  
     178  hru0178                    hru         178     1.6070E-5       1.00000       0.00000  
     179  hru0179                    hru         179     2.9115E-5       1.00000       0.00000  
     180  hru0180                    hru         180     2.9658E-5       1.00000       0.00000  
     181  hru0181                    hru         181     3.9060E-6       1.00000       0.00000  
     182  hru0182                    hru         182     5.6296E-5       1.00000       0.00000  
     183  hru0183                    hru         183     6.7283E-5       1.00000       0.00000  
     184  hru0184                    hru         184     9.5105E-6       1.00000       0.00000  
     185  hru0185                    hru         185     1.7093E-5       1.00000       0.00000  
     186  hru0186                    hru         186     5.4862E-5       1.00000       0.00000  
     187  hru0187                    hru         187     8.9995E-6       1.00000       0.00000  
     188  hru0188                    hru         188     8.0894E-5       1.00000       0.00000  
     189  hru0189                    hru         189     3.7032E-5       1.00000       0.00000  
     190  hru0190                    hru         190     5.4511E-6       1.00000       0.00000  
     191  hru0191                    hru         191     4.9874E-5       1.00000       0.00000  
     192  hru0192                    hru         192     2.7143E-5       1.00000       0.00000  
     193  hru0193                    hru         193     1.3044E-4       1.00000       0.00000  
     194  hru0194                    hru         194     1.8021E-4       1.00000       0.00000  
     195  hru0195                    hru         195     5.3316E-5       1.00000       0.00000  
     196  hru0196                    hru         196     1.3156E-5       1.00000       0.00000  
     197  hru0197                    hru         197     1.7199E-4       1.00000       0.00000  
     198  hru0198                    hru         198     4.6273E-5       1.00000       0.00000  
     199  hru0199                    hru         199     2.7661E-5       1.00000       0.00000  
     200  hru0200                    hru         200     7.5724E-5       1.00000       0.00000  
     201  hru0201                    hru         201     1.1482E-4       1.00000       0.00000  
     202  hru0202                    hru         202     3.0465E-5       1.00000       0.00000  
     203  hru0203                    hru         203     1.2145E-5       1.00000       0.00000  
     204  hru0204                    hru         204     3.2751E-5       1.00000       0.00000  
     205  hru0205                    hru         205     5.1491E-5       1.00000       0.00000  
     206  hru0206                    hru         206     4.4801E-4       1.00000       0.00000  
     207  hru0207                    hru         207     1.7898E-4       1.00000       0.00000  
     208  hru0208                    hru         208     1.3497E-4       1.00000       0.00000  
     209  hru0209                    hru         209     3.5688E-6       1.00000       0.00000  
     210  hru0210                    hru         210     5.9955E-5       1.00000       0.00000  
     211  hru0211                    hru         211     9.5763E-4       1.00000       0.00000  
     212  hru0212                    hru         212     8.2432E-5       1.00000       0.00000  
     213  hru0213                    hru         213     2.7983E-5       1.00000       0.00000  
     214  hru0214                    hru         214     1.0484E-5       1.00000       0.00000  
     215  hru0215                    hru         215     2.3148E-5       1.00000       0.00000  
     216  hru0216                    hru         216     7.6026E-6       1.00000       0.00000  
     217  hru0217                    hru         217     1.9649E-6       1.00000       0.00000  
     218  hru0218                    hru         218     4.3892E-5       1.00000       0.00000  
     219  hru0219                    hru         219     4.0272E-5       1.00000       0.00000  
     220  hru0220                    hru         220     2.3559E-6       1.00000       0.00000  
     221  hru0221                    hru         221     1.0082E-4       1.00000       0.00000  
     222  hru0222                    hru         222     4.2617E-5       1.00000       0.00000  
     223  hru0223                    hru         223     2.2990E-5       1.00000       0.00000  
     224  hru0224                    hru         224     3.0172E-5       1.00000       0.00000  
     225  hru0225                    hru         225     2.1085E-5       1.00000       0.00000  
     226  hru0226                    hru         226     5.7784E-5       1.00000       0.00000  
     227  hru0227                    hru         227     7.3371E-5       1.00000       0.00000  
     228  hru0228                    hru         228     2.5261E-4       1.00000       0.00000  
     229  hru0229                    hru         229     1.5504E-4       1.00000       0.00000  
     230  hru0230                    hru         230     1.3869E-5       1.00000       0.00000  
     231  hru0231                    hru         231     3.4252E-5       1.00000       0.00000  
     232  hru0232                    hru         232     2.2900E-5       1.00000       0.00000  
     233  hru0233                    hru         233     1.9339E-5       1.00000       0.00000  
     234  hru0234                    hru         234     3.7889E-5       1.00000       0.00000  
     235  hru0235                    hru         235     7.1156E-5       1.00000       0.00000  
     236  hru0236                    hru         236     8.2645E-5       1.00000       0.00000  
     237  hru0237                    hru         237     7.1869E-5       1.00000       0.00000  
     238  hru0238                    hru         238     1.3597E-4       1.00000       0.00000  
     239  hru0239                    hru         239     6.7687E-5       1.00000       0.00000  
     240  hru0240                    hru         240     1.0911E-5       1.00000       0.00000  
     241  hru0241                    hru         241     1.8492E-6       1.00000       0.00000  
     242  hru0242                    hru         242     1.7549E-5       1.00000       0.00000  
     243  hru0243                    hru         243     7.7719E-5       1.00000       0.00000  
     244  hru0244                    hru         244     1.0428E-5       1.00000       0.00000  
     245  hru0245                    hru         245     1.2640E-4       1.00000       0.00000  
     246  hru0246                    hru         246     8.5621E-5       1.00000       0.00000  
     247  hru0247                    hru         247     8.6946E-5       1.00000       0.00000  
     248  hru0248                    hru         248     3.0946E-5       1.00000       0.00000  
     249  hru0249                    hru         249     7.6850E-5       1.00000       0.00000  
     250  hru0250                    hru         250     3.2733E-5       1.00000       0.00000  
     251  hru0251                    hru         251     1.1391E-5       1.00000       0.00000  
     252  hru0252                    hru         252     1.7068E-6       1.00000       0.00000  
     253  hru0253                    hru         253     1.8798E-5       1.00000       0.00000  
     254  hru0254                    hru         254     9.4851E-5       1.00000       0.00000  
     255  hru0255                    hru         255     2.3301E-5       1.00000       0.00000  
     256  hru0256                    hru         256     1.5396E-5       1.00000       0.00000  
     257  hru0257                    hru         257     6.5754E-5       1.00000       0.00000  
     258  hru0258                    hru         258     1.0136E-4       1.00000       0.00000  
     259  hru0259                    hru         259     1.4657E-4       1.00000       0.00000  
     260  hru0260                    hru         260     3.4866E-5       1.00000       0.00000  
     261  hru0261                    hru         261     2.6498E-5       1.00000       0.00000  
     262  hru0262                    hru         262     1.5761E-5       1.00000       0.00000  
     263  hru0263                    hru         263     2.2692E-6       1.00000       0.00000  
     264  hru0264                    hru         264     2.6010E-5       1.00000       0.00000  
     265  hru0265                    hru         265     2.9859E-5       1.00000       0.00000  
     266  hru0266                    hru         266     2.5839E-5       1.00000       0.00000  
     267  hru0267                    hru         267     4.4165E-5       1.00000       0.00000  
     268  hru0268                    hru         268     6.9013E-5       1.00000       0.00000  
     269  hru0269                    hru         269     2.1367E-5       1.00000       0.00000  
     270  hru0270                    hru         270     1.9017E-5       1.00000       0.00000  
     271  hru0271                    hru         271     1.4567E-5       1.00000       0.00000  
     272  hru0272                    hru         272     4.0851E-5       1.00000       0.00000  
     273  hru0273                    hru         273     1.1172E-4       1.00000       0.00000  
     274  hru0274                    hru         274     1.7089E-4       1.00000       0.00000  
     275  hru0275                    hru         275     7.7552E-5       1.00000       0.00000  
     276  hru0276                    hru         276     2.7913E-5       1.00000       0.00000  
     277  hru0277                    hru         277     1.3711E-5       1.00000       0.00000  
     278  hru0278                    hru         278     1.6874E-6       1.00000       0.00000  
     279  hru0279                    hru         279     4.2347E-5       1.00000       0.00000  
     280  hru0280                    hru         280     9.8452E-6       1.00000       0.00000  
     281  hru0281                    hru         281     2.7786E-5       1.00000       0.00000  
     282  hru0282                    hru         282     4.4873E-5       1.00000       0.00000  
     283  hru0283                    hru         283     4.3641E-5       1.00000       0.00000  
     284  hru0284                    hru         284     1.5749E-4       1.00000       0.00000  
     285  hru0285                    hru         285     3.9504E-5       1.00000       0.00000  
     286  hru0286                    hru         286     4.5932E-5       1.00000       0.00000  
     287  hru0287                    hru         287     8.8535E-5       1.00000       0.00000  
     288  hru0288                    hru         288     3.2503E-4       1.00000       0.00000  
     289  hru0289                    hru         289     6.8104E-5       1.00000       0.00000  
     290  hru0290                    hru         290     3.6637E-4       1.00000       0.00000  
     291  hru0291                    hru         291     1.6197E-5       1.00000       0.00000  
     292  hru0292                    hru         292     5.5040E-5       1.00000       0.00000  
     293  hru0293                    hru         293     3.4316E-5       1.00000       0.00000  
     294  hru0294                    hru         294     4.9437E-5       1.00000       0.00000  
     295  hru0295                    hru         295     5.1131E-5       1.00000       0.00000  
     296  hru0296                    hru         296     6.4539E-5       1.00000       0.00000  
     297  hru0297                    hru         297     7.7121E-6       1.00000       0.00000  
     298  hru0298                    hru         298     1.8550E-5       1.00000       0.00000  
     299  hru0299                    hru         299     8.8675E-6       1.00000       0.00000  
     300  hru0300                    hru         300     4.1449E-6       1.00000       0.00000  
     301  hru0301                    hru         301     6.0345E-5       1.00000       0.00000  
     302  hru0302                    hru         302     1.1522E-3       1.00000       0.00000  
     303  hru0303                    hru         303     4.8168E-6       1.00000       0.00000  
     304  hru0304                    hru         304     2.5762E-5       1.00000       0.00000  
     305  hru0305                    hru         305     9.6314E-5       1.00000       0.00000  
     306  hru0306                    hru         306     2.4168E-5       1.00000       0.00000  
     307  hru0307                    hru         307     6.4513E-5       1.00000       0.00000  