ls_unit.def: written by SWAT+ editor v2.1.0 on 2025-01-10 12:35 for SWAT+ rev.2.1.4
6309
      id              name          area  elem_tot  elements  
       1           rtu0001       0.22983         1         1  
       2           rtu0002       0.40121         1         2  
       3           rtu0003       0.40569         1         3  
       4           rtu0004       0.37518         1         4  
       5           rtu0005       0.20644         1         5  
       6           rtu0006       1.97340         1         6  
       7           rtu0007       1.16465         1         7  
       8           rtu0008       0.22644         1         8  
       9           rtu0009       0.02392         1         9  
      10           rtu0010       0.40613         1        10  
      11           rtu0011       1.44941         1        11  
      12           rtu0012       1.80308         1        12  
      13           rtu0013       0.05360         1        13  
      14           rtu0014       0.61949         1        14  
      15           rtu0015       1.32241         1        15  
      16           rtu0016       0.08254         1        16  
      17           rtu0017       0.52209         1        17  
      18           rtu0018       0.34043         1        18  
      19           rtu0019       0.70861         1        19  
      20           rtu0020       3.11038         1        20  
      21           rtu0021       2.07640         1        21  
      22           rtu0022       0.59898         1        22  
      23           rtu0023       0.11508         1        23  
      24           rtu0024       0.02330         1        24  
      25           rtu0025       0.49576         1        25  
      26           rtu0026       0.28724         1        26  
      27           rtu0027       0.30741         1        27  
      28           rtu0028       1.84400         1        28  
      29           rtu0029       0.07728         1        29  
      30           rtu0030       0.04522         1        30  
      31           rtu0031       0.40996         1        31  
      32           rtu0032       1.49902         1        32  
      33           rtu0033       0.06112         1        33  
      34           rtu0034       0.67907         1        34  
      35           rtu0035       0.97634         1        35  
      36           rtu0036       0.34817         1        36  
      37           rtu0037       5.64269         1        37  
      38           rtu0038       0.27249         1        38  
      39           rtu0039       0.14410         1        39  
      40           rtu0040       2.70186         1        40  
      41           rtu0041       4.89757         1        41  
      42           rtu0042       0.03348         1        42  
      43           rtu0043       0.03277         1        43  
      44           rtu0044       1.12790         1        44  
      45           rtu0045       2.46662         1        45  
      46           rtu0046       0.79763         1        46  
      47           rtu0047       0.02170         1        47  
      48           rtu0048       0.43061         1        48  
      49           rtu0049       2.30180         1        49  
      50           rtu0050       0.34974         1        50  
      51           rtu0051       1.46094         1        51  
      52           rtu0052       0.80136         1        52  
      53           rtu0053       0.05926         1        53  
      54           rtu0054       0.47441         1        54  
      55           rtu0055       0.44548         1        55  
      56           rtu0056       0.53401         1        56  
      57           rtu0057       0.27043         1        57  
      58           rtu0058       0.57161         1        58  
      59           rtu0059       0.66735         1        59  
      60           rtu0060       0.68762         1        60  
      61           rtu0061       1.45041         1        61  
      62           rtu0062       0.85342         1        62  
      63           rtu0063       0.04639         1        63  
      64           rtu0064       0.37981         1        64  
      65           rtu0065       0.14176         1        65  
      66           rtu0066       0.35690         1        66  
      67           rtu0067       0.49622         1        67  
      68           rtu0068       0.31100         1        68  
      69           rtu0069       0.01584         1        69  
      70           rtu0070       0.55519         1        70  
      71           rtu0071       0.26621         1        71  
      72           rtu0072       0.74456         1        72  
      73           rtu0073       0.34964         1        73  
      74           rtu0074       0.11938         1        74  
      75           rtu0075       0.20277         1        75  
      76           rtu0076       0.36012         1        76  
      77           rtu0077       0.37858         1        77  
      78           rtu0078       0.72765         1        78  
      79           rtu0079       0.42198         1        79  
      80           rtu0080       0.53894         1        80  
      81           rtu0081       1.10370         1        81  
      82           rtu0082       0.48039         1        82  
      83           rtu0083       1.16136         1        83  
      84           rtu0084       0.26331         1        84  
      85           rtu0085       0.07207         1        85  
      86           rtu0086       1.45872         1        86  
      87           rtu0087       0.43170         1        87  
      88           rtu0088       0.69259         1        88  
      89           rtu0089       0.89038         1        89  
      90           rtu0090       0.06048         1        90  
      91           rtu0091       0.22282         1        91  
      92           rtu0092       0.21485         1        92  
      93           rtu0093       0.13851         1        93  
      94           rtu0094       0.93331         1        94  
      95           rtu0095       0.22599         1        95  
      96           rtu0096       0.03409         1        96  
      97           rtu0097       0.45307         1        97  
      98           rtu0098       3.18037         1        98  
      99           rtu0099       0.12857         1        99  
     100           rtu0100       0.38658         1       100  
     101           rtu0101       0.48571         1       101  
     102           rtu0102       0.04078         1       102  
     103           rtu0103       0.70182         1       103  
     104           rtu0104       0.19860         1       104  
     105           rtu0105       0.61929         1       105  
     106           rtu0106       0.03136         1       106  
     107           rtu0107       0.14707         1       107  
     108           rtu0108       0.38969         1       108  
     109           rtu0109       0.13097         1       109  
     110           rtu0110       0.88411         1       110  
     111           rtu0111       0.28481         1       111  
     112           rtu0112       0.15302         1       112  
     113           rtu0113       0.06583         1       113  
     114           rtu0114       2.21561         1       114  
     115           rtu0115       0.00972         1       115  
     116           rtu0116       0.34422         1       116  
     117           rtu0117       0.43707         1       117  
     118           rtu0118       2.88654         1       118  
     119           rtu0119       2.21242         1       119  
     120           rtu0120       0.89302         1       120  
     121           rtu0121       1.56024         1       121  
     122           rtu0122       0.01086         1       122  
     123           rtu0123       0.79810         1       123  
     124           rtu0124       0.41611         1       124  
     125           rtu0125       0.15911         1       125  
     126           rtu0126       1.66054         1       126  
     127           rtu0127       1.09712         1       127  
     128           rtu0128       7.63041         1       128  
     129           rtu0129       6.13016         1       129  
     130           rtu0130       0.07898         1       130  
     131           rtu0131       0.09453         1       131  
     132           rtu0132       0.15084         1       132  
     133           rtu0133       0.26683         1       133  
     134           rtu0134       2.70632         1       134  
     135           rtu0135       0.45031         1       135  
     136           rtu0136       0.27401         1       136  
     137           rtu0137       0.15689         1       137  
     138           rtu0138       1.15927         1       138  
     139           rtu0139       0.07208         1       139  
     140           rtu0140       0.67257         1       140  
     141           rtu0141       0.65092         1       141  
     142           rtu0142       1.65387         1       142  
     143           rtu0143       1.21678         1       143  
     144           rtu0144       0.35872         1       144  
     145           rtu0145       0.04724         1       145  
     146           rtu0146       0.09483         1       146  
     147           rtu0147       0.16015         1       147  
     148           rtu0148       1.09559         1       148  
     149           rtu0149       4.36170         1       149  
     150           rtu0150       0.01862         1       150  
     151           rtu0151       0.20017         1       151  
     152           rtu0152       0.12654         1       152  
     153           rtu0153       0.11705         1       153  
     154           rtu0154       0.30985         1       154  
     155           rtu0155       0.32374         1       155  
     156           rtu0156       0.21077         1       156  
     157           rtu0157       0.84255         1       157  
     158           rtu0158       0.39259         1       158  
     159           rtu0159       0.15215         1       159  
     160           rtu0160       0.63857         1       160  
     161           rtu0161       0.16870         1       161  
     162           rtu0162       0.12161         1       162  
     163           rtu0163       0.78964         1       163  
     164           rtu0164       1.21625         1       164  
     165           rtu0165       0.15580         1       165  
     166           rtu0166       0.03073         1       166  
     167           rtu0167       0.46095         1       167  
     168           rtu0168       0.17073         1       168  
     169           rtu0169       0.03463         1       169  
     170           rtu0170       0.13495         1       170  
     171           rtu0171       0.64875         1       171  
     172           rtu0172       0.03520         1       172  
     173           rtu0173       0.04636         1       173  
     174           rtu0174       0.33927         1       174  
     175           rtu0175       1.15254         1       175  
     176           rtu0176       0.04742         1       176  
     177           rtu0177       0.10953         1       177  
     178           rtu0178       0.13838         1       178  
     179           rtu0179       0.25070         1       179  
     180           rtu0180       0.25538         1       180  
     181           rtu0181       0.03363         1       181  
     182           rtu0182       0.48476         1       182  
     183           rtu0183       0.57936         1       183  
     184           rtu0184       0.08189         1       184  
     185           rtu0185       0.14719         1       185  
     186           rtu0186       0.47241         1       186  
     187           rtu0187       0.07749         1       187  
     188           rtu0188       0.69656         1       188  
     189           rtu0189       0.31887         1       189  
     190           rtu0190       0.04694         1       190  
     191           rtu0191       0.42946         1       191  
     192           rtu0192       0.23373         1       192  
     193           rtu0193       1.12316         1       193  
     194           rtu0194       1.55179         1       194  
     195           rtu0195       0.45910         1       195  
     196           rtu0196       0.11328         1       196  
     197           rtu0197       1.48096         1       197  
     198           rtu0198       0.39845         1       198  
     199           rtu0199       0.23818         1       199  
     200           rtu0200       0.65205         1       200  
     201           rtu0201       0.98868         1       201  
     202           rtu0202       0.26233         1       202  
     203           rtu0203       0.10457         1       203  
     204           rtu0204       0.28201         1       204  
     205           rtu0205       0.44338         1       205  
     206           rtu0206       3.85776         1       206  
     207           rtu0207       1.54114         1       207  
     208           rtu0208       1.16217         1       208  
     209           rtu0209       0.03073         1       209  
     210           rtu0210       0.51627         1       210  
     211           rtu0211       8.24599         1       211  
     212           rtu0212       0.70981         1       212  
     213           rtu0213       0.24096         1       213  
     214           rtu0214       0.09028         1       214  
     215           rtu0215       0.19933         1       215  
     216           rtu0216       0.06546         1       216  
     217           rtu0217       0.01692         1       217  
     218           rtu0218       0.37795         1       218  
     219           rtu0219       0.34677         1       219  
     220           rtu0220       0.02029         1       220  
     221           rtu0221       0.86815         1       221  
     222           rtu0222       0.36697         1       222  
     223           rtu0223       0.19796         1       223  
     224           rtu0224       0.25981         1       224  
     225           rtu0225       0.18156         1       225  
     226           rtu0226       0.49757         1       226  
     227           rtu0227       0.63179         1       227  
     228           rtu0228       2.17516         1       228  
     229           rtu0229       1.33505         1       229  
     230           rtu0230       0.11942         1       230  
     231           rtu0231       0.29494         1       231  
     232           rtu0232       0.19719         1       232  
     233           rtu0233       0.16652         1       233  
     234           rtu0234       0.32626         1       234  
     235           rtu0235       0.61271         1       235  
     236           rtu0236       0.71165         1       236  
     237           rtu0237       0.61885         1       237  
     238           rtu0238       1.17080         1       238  
     239           rtu0239       0.58284         1       239  
     240           rtu0240       0.09395         1       240  
     241           rtu0241       0.01592         1       241  
     242           rtu0242       0.15111         1       242  
     243           rtu0243       0.66922         1       243  
     244           rtu0244       0.08980         1       244  
     245           rtu0245       1.08841         1       245  
     246           rtu0246       0.73727         1       246  
     247           rtu0247       0.74868         1       247  
     248           rtu0248       0.26647         1       248  
     249           rtu0249       0.66174         1       249  
     250           rtu0250       0.28186         1       250  
     251           rtu0251       0.09809         1       251  
     252           rtu0252       0.01470         1       252  
     253           rtu0253       0.16187         1       253  
     254           rtu0254       0.81675         1       254  
     255           rtu0255       0.20064         1       255  
     256           rtu0256       0.13257         1       256  
     257           rtu0257       0.56620         1       257  
     258           rtu0258       0.87281         1       258  
     259           rtu0259       1.26208         1       259  
     260           rtu0260       0.30023         1       260  
     261           rtu0261       0.22817         1       261  
     262           rtu0262       0.13571         1       262  
     263           rtu0263       0.01954         1       263  
     264           rtu0264       0.22397         1       264  
     265           rtu0265       0.25711         1       265  
     266           rtu0266       0.22250         1       266  
     267           rtu0267       0.38030         1       267  
     268           rtu0268       0.59426         1       268  
     269           rtu0269       0.18399         1       269  
     270           rtu0270       0.16376         1       270  
     271           rtu0271       0.12543         1       271  
     272           rtu0272       0.35176         1       272  
     273           rtu0273       0.96202         1       273  
     274           rtu0274       1.47147         1       274  
     275           rtu0275       0.66779         1       275  
     276           rtu0276       0.24036         1       276  
     277           rtu0277       0.11807         1       277  
     278           rtu0278       0.01453         1       278  
     279           rtu0279       0.36465         1       279  
     280           rtu0280       0.08478         1       280  
     281           rtu0281       0.23926         1       281  
     282           rtu0282       0.38639         1       282  
     283           rtu0283       0.37579         1       283  
     284           rtu0284       1.35614         1       284  
     285           rtu0285       0.34016         1       285  
     286           rtu0286       0.39551         1       286  
     287           rtu0287       0.76236         1       287  
     288           rtu0288       2.79875         1       288  
     289           rtu0289       0.58643         1       289  
     290           rtu0290       3.15474         1       290  
     291           rtu0291       0.13947         1       291  
     292           rtu0292       0.47394         1       292  
     293           rtu0293       0.29549         1       293  
     294           rtu0294       0.42570         1       294  
     295           rtu0295       0.44028         1       295  
     296           rtu0296       0.55574         1       296  
     297           rtu0297       0.06641         1       297  
     298           rtu0298       0.15973         1       298  
     299           rtu0299       0.07636         1       299  
     300           rtu0300       0.03569         1       300  
     301           rtu0301       0.51962         1       301  
     302           rtu0302       9.92167         1       302  
     303           rtu0303       0.04148         1       303  
     304           rtu0304       0.22184         1       304  
     305           rtu0305       0.82934         1       305  
     306           rtu0306       0.20811         1       306  
     307           rtu0307       0.55551         1       307  
     308           rtu0308       0.23355         1       308  
     309           rtu0309       0.04829         1       309  
     310           rtu0310       0.23368         1       310  
     311           rtu0311       0.10475         1       311  
     312           rtu0312       0.04515         1       312  
     313           rtu0313       0.50047         1       313  
     314           rtu0314       0.57961         1       314  
     315           rtu0315       0.58326         1       315  
     316           rtu0316       0.15857         1       316  
     317           rtu0317       0.31861         1       317  
     318           rtu0318       0.10784         1       318  
     319           rtu0319       2.57836         1       319  
     320           rtu0320       1.09541         1       320  
     321           rtu0321       0.87598         1       321  
     322           rtu0322       0.42449         1       322  
     323           rtu0323       0.25280         1       323  
     324           rtu0324       0.04791         1       324  
     325           rtu0325       1.03154         1       325  
     326           rtu0326       0.68925         1       326  
     327           rtu0327       1.96695         1       327  
     328           rtu0328       0.24916         1       328  
     329           rtu0329       0.03042         1       329  
     330           rtu0330       0.02801         1       330  
     331           rtu0331       1.79261         1       331  
     332           rtu0332       1.00112         1       332  
     333           rtu0333       0.23669         1       333  
     334           rtu0334       0.03970         1       334  
     335           rtu0335       0.06114         1       335  
     336           rtu0336       0.52563         1       336  
     337           rtu0337       0.20205         1       337  
     338           rtu0338       0.56262         1       338  
     339           rtu0339       0.50836         1       339  
     340           rtu0340       0.49096         1       340  
     341           rtu0341       0.23012         1       341  
     342           rtu0342       0.15910         1       342  
     343           rtu0343       0.12516         1       343  
     344           rtu0344       0.38739         1       344  
     345           rtu0345       0.61527         1       345  
     346           rtu0346       0.99281         1       346  
     347           rtu0347       0.03562         1       347  
     348           rtu0348       0.04464         1       348  
     349           rtu0349       0.89874         1       349  
     350           rtu0350       0.19640         1       350  
     351           rtu0351       1.21823         1       351  
     352           rtu0352       0.76044         1       352  
     353           rtu0353       0.39576         1       353  
     354           rtu0354       0.20421         1       354  
     355           rtu0355       0.47326         1       355  
     356           rtu0356       0.29080         1       356  
     357           rtu0357       0.21928         1       357  
     358           rtu0358       0.12025         1       358  
     359           rtu0359       1.74460         1       359  
     360           rtu0360       0.61371         1       360  
     361           rtu0361       0.33314         1       361  
     362           rtu0362       0.25014         1       362  
     363           rtu0363       0.35121         1       363  
     364           rtu0364       0.18804         1       364  
     365           rtu0365       0.10233         1       365  
     366           rtu0366       0.13922         1       366  
     367           rtu0367       0.03650         1       367  
     368           rtu0368       0.19143         1       368  
     369           rtu0369       0.52728         1       369  
     370           rtu0370       0.23310         1       370  
     371           rtu0371       0.36124         1       371  
     372           rtu0372       0.47117         1       372  
     373           rtu0373       0.40031         1       373  
     374           rtu0374       0.22122         1       374  
     375           rtu0375       0.14651         1       375  
     376           rtu0376       2.21642         1       376  
     377           rtu0377       0.47878         1       377  
     378           rtu0378       0.30403         1       378  
     379           rtu0379       1.83962         1       379  
     380           rtu0380       1.68215         1       380  
     381           rtu0381       0.31233         1       381  
     382           rtu0382       4.31290         1       382  
     383           rtu0383       0.12066         1       383  
     384           rtu0384       0.46064         1       384  
     385           rtu0385       0.25387         1       385  
     386           rtu0386       0.30988         1       386  
     387           rtu0387       0.41169         1       387  
     388           rtu0388       0.40184         1       388  
     389           rtu0389       1.15599         1       389  
     390           rtu0390       0.30173         1       390  
     391           rtu0391       0.16262         1       391  
     392           rtu0392       0.22954         1       392  
     393           rtu0393       0.43919         1       393  
     394           rtu0394       0.37034         1       394  
     395           rtu0395       0.96043         1       395  
     396           rtu0396       0.18213         1       396  
     397           rtu0397       1.44269         1       397  
     398           rtu0398       0.48078         1       398  
     399           rtu0399       0.56882         1       399  
     400           rtu0400       0.07410         1       400  
     401           rtu0401       0.15300         1       401  
     402           rtu0402       0.06617         1       402  
     403           rtu0403       0.07338         1       403  
     404           rtu0404       0.05809         1       404  
     405           rtu0405       0.70766         1       405  
     406           rtu0406       0.02755         1       406  
     407           rtu0407       0.01680         1       407  
     408           rtu0408       0.28315         1       408  
     409           rtu0409       0.07890         1       409  
     410           rtu0410       3.67992         1       410  
     411           rtu0411       0.37350         1       411  
     412           rtu0412       0.48110         1       412  
     413           rtu0413       2.63420         1       413  
     414           rtu0414      12.91484         1       414  
     415           rtu0415       0.98210         1       415  
     416           rtu0416      12.83846         1       416  
     417           rtu0417       0.06185         1       417  
     418           rtu0418       0.62434         1       418  
     419           rtu0419       0.23413         1       419  
     420           rtu0420       1.81638         1       420  
     421           rtu0421       0.22216         1       421  
     422           rtu0422       0.75064         1       422  
     423           rtu0423       0.57333         1       423  
     424           rtu0424       0.05079         1       424  
     425           rtu0425       0.67432         1       425  
     426           rtu0426       0.04010         1       426  
     427           rtu0427       0.29963         1       427  
     428           rtu0428       1.39996         1       428  
     429           rtu0429       0.28920         1       429  
     430           rtu0430       0.73333         1       430  
     431           rtu0431       0.04001         1       431  
     432           rtu0432       0.06438         1       432  
     433           rtu0433       0.06865         1       433  
     434           rtu0434       1.01428         1       434  
     435           rtu0435       3.30729         1       435  
     436           rtu0436       0.06075         1       436  
     437           rtu0437       0.16751         1       437  
     438           rtu0438       0.30915         1       438  
     439           rtu0439       1.02398         1       439  
     440           rtu0440       0.60643         1       440  
     441           rtu0441       1.04286         1       441  
     442           rtu0442       0.29903         1       442  
     443           rtu0443       0.29123         1       443  
     444           rtu0444       0.03837         1       444  
     445           rtu0445       0.90719         1       445  
     446           rtu0446       0.39701         1       446  
     447           rtu0447       0.03424         1       447  
     448           rtu0448       0.05113         1       448  
     449           rtu0449       0.80779         1       449  
     450           rtu0450       0.15025         1       450  
     451           rtu0451       1.85644         1       451  
     452           rtu0452       1.08170         1       452  
     453           rtu0453       0.14051         1       453  
     454           rtu0454       0.20591         1       454  
     455           rtu0455       1.30341         1       455  
     456           rtu0456       3.98829         1       456  
     457           rtu0457       1.45961         1       457  
     458           rtu0458       0.57545         1       458  
     459           rtu0459       0.11414         1       459  
     460           rtu0460       0.28082         1       460  
     461           rtu0461       0.17674         1       461  
     462           rtu0462       0.48612         1       462  
     463           rtu0463       0.12381         1       463  
     464           rtu0464       0.21151         1       464  
     465           rtu0465       0.07761         1       465  
     466           rtu0466       0.45618         1       466  
     467           rtu0467       0.56633         1       467  
     468           rtu0468       0.57320         1       468  
     469           rtu0469       0.94042         1       469  
     470           rtu0470       0.89126         1       470  
     471           rtu0471       0.03986         1       471  
     472           rtu0472       5.48246         1       472  
     473           rtu0473       0.42841         1       473  