object.cnt: file was written by SWATprepR R package 2025-01-10 12:53:33.367203
name                     ls_area    tot_area         obj         hru        lhru         rtu       mfl       aqu       cha       res       rec      exco       dlr       can       pmp       out      lcha     aqu2d       hrd       wro
cs5_project           8610.84841  8610.84841       13608        6309           0        6309         0         1         0        52         0         3         0         0         0         0       934         0         0         0
