pcp.cli: Precipitation file names - file written by SWATprepR R package 2025-01-10 12:34:48.944416
filename
sta_id1.pcp
sta_id2.pcp
