reservoir.con: written by SWAT+ editor v2.1.0 on 2025-01-10 12:35 for SWAT+ rev.2.1.4
      id  name                gis_id          area           lat           lon          elev       res               wst       cst      ovfl      rule   out_tot       obj_typ    obj_id       hyd_typ          frac  
       1  res01                    0       0.04124      46.64122      15.55211     321.44291         1        s4664n157e         0         0         0         1           sdc       453           tot       1.00000  
       2  res02                    0       0.04764      46.64090      15.55183     324.05669         2        s4664n157e         0         0         0         1           sdc       452           tot       1.00000  
       3  res03                    0       0.04248      46.65976      15.55839     345.97895         3        s4664n157e         0         0         0         0  
       4  res04                    0       0.03389      46.65104      15.57818     309.09686         4        s4664n157e         0         0         0         1           sdc       572           tot       1.00000  
       5  res05                    0       0.04429      46.65983      15.55902     354.49668         5        s4664n157e         0         0         0         0  
       6  res06                    0       0.07811      46.62309      15.56287     548.36015         6        s4664n157e         0         0         0         1           sdc       180           tot       1.00000  
       7  res07                    0       0.18389      46.64356      15.60194     313.08528         7        s4664n157e         0         0         0         1           sdc       783           tot       1.00000  
       8  res08                    0       0.04569      46.61346      15.66338     257.00017         8        s4664n157e         0         0         0         1           sdc        90           tot       1.00000  
       9  res09                    0       0.07274      46.64767      15.64784     281.00046         9        s4664n157e         0         0         0         1           sdc       545           tot       1.00000  
      10  res10                    0       0.03923      46.67867      15.59874     327.53992        10        s4664n157e         0         0         0         1           sdc       757           tot       1.00000  
      11  res11                    0       0.10003      46.65639      15.61416     284.09104        11        s4664n157e         0         0         0         1           sdc       900           tot       1.00000  
      12  res12                    0       0.02569      46.68600      15.60176     355.71992        12        s4664n157e         0         0         0         1           sdc       774           tot       1.00000  
      13  res13                    0       0.03979      46.64713      15.63588     294.00259        13        s4664n157e         0         0         0         1           sdc       536           tot       1.00000  
      14  res14                    0       0.05827      46.64701      15.64150     304.25952        14        s4664n157e         0         0         0         0  
      15  res15                    0       0.13715      46.61101      15.63157     275.01615        15        s4664n157e         0         0         0         1           sdc        86           tot       1.00000  
      16  res16                    0       0.00687      46.67767      15.57348     413.37689        16        s4664n157e         0         0         0         0  
      17  res17                    0       0.01854      46.64271      15.56418     301.07576        17        s4664n157e         0         0         0         0  
      18  res18                    0       0.03093      46.65342      15.60619     288.62588        18        s4664n157e         0         0         0         0  
      19  res19                    0       0.04412      46.61482      15.63996     272.02271        19        s4664n157e         0         0         0         1           sdc        83           tot       1.00000  
      20  res20                    0       0.02931      46.65721      15.62536     288.00713        20        s4664n157e         0         0         0         0  
      21  res21                    0       0.03081      46.64053      15.62235     294.25981        21        s4664n157e         0         0         0         1           sdc       424           tot       1.00000  
      22  res22                    0       0.09685      46.67829      15.59977     322.17726        22        s4664n157e         0         0         0         1           sdc       928           tot       1.00000  
      23  res23                    0       0.01813      46.68006      15.59661     348.20450        23        s4664n157e         0         0         0         1           sdc       751           tot       1.00000  
      24  res24                    0       0.05745      46.64419      15.60207     320.02627        24        s4664n157e         0         0         0         1           sdc       782           tot       1.00000  
      25  res25                    0       0.12475      46.60719      15.66860     276.00973        25        s4664n157e         0         0         0         1           sdc       785           tot       1.00000  
      26  res26                    0       0.05729      46.65257      15.64554     287.01747        26        s4664n157e         0         0         0         1           sdc       897           tot       1.00000  
      27  res27                    0       0.03266      46.68530      15.59721     402.24093        27        s4664n157e         0         0         0         1           sdc       771           tot       1.00000  
      28  res28                    0       0.03420      46.62227      15.56289     533.25083        28        s4664n157e         0         0         0         1           sdc       181           tot       1.00000  
      29  res29                    0       0.05058      46.64487      15.60217     333.00599        29        s4664n157e         0         0         0         1           sdc       781           tot       1.00000  
      30  res30                    0       0.07862      46.61654      15.65008     270.18278        30        s4664n157e         0         0         0         0  
      31  res31                    0       0.06382      46.60519      15.66981     268.00009        31        s4664n157e         0         0         0         1           sdc       787           tot       1.00000  
      32  res32                    0       0.01067      46.67771      15.59995     326.82864        32        s4664n157e         0         0         0         0  
      33  res33                    0       0.01879      46.68097      15.59171     366.83341        33        s4664n157e         0         0         0         0  
      34  res34                    0       0.04927      46.64430      15.60083     343.94945        34        s4664n157e         0         0         0         0  
      35  res35                    0       0.08454      46.63804      15.63426     303.01541        35        s4664n157e         0         0         0         1           sdc       378           tot       1.00000  
      36  res36                    0       0.01962      46.65442      15.56494     332.17716        36        s4664n157e         0         0         0         0  
      37  res37                    0       0.02961      46.65349      15.55378     317.03059        37        s4664n157e         0         0         0         0  
      38  res38                    0       0.01473      46.67974      15.59710     340.31764        38        s4664n157e         0         0         0         1           sdc       752           tot       1.00000  
      39  res39                    0       0.03618      46.67965      15.59571     363.92766        39        s4664n157e         0         0         0         0  
      40  res40                    0       0.03365      46.64140      15.65094     276.02427        40        s4664n157e         0         0         0         0  
      41  res41                    0       0.09193      46.63296      15.63802     271.01203        41        s4664n157e         0         0         0         1           sdc       364           tot       1.00000  
      42  res42                    0       0.06560      46.65959      15.61889     343.00016        42        s4664n157e         0         0         0         0  
      43  res43                    0       0.05915      46.60670      15.66875     273.91008        43        s4664n157e         0         0         0         1           sdc       786           tot       1.00000  
      44  res44                    0       0.38627      46.62113      15.51103     639.05297        44        s4664n157e         0         0         0         0  
      45  res45                    0       0.23973      46.62173      15.50973     643.16696        45        s4664n157e         0         0         0         0  
      46  res46                    0       0.11818      46.62260      15.51254     643.49590        46        s4664n157e         0         0         0         0  
      47  res47                    0       0.12014      46.62337      15.51208     646.66816        47        s4664n157e         0         0         0         0  
      48  res48                    0       0.05005      46.65214      15.52234     325.13676        48        s4664n157e         0         0         0         0  
      49  res49                    0       0.16232      46.66259      15.54402     333.74623        49        s4664n157e         0         0         0         0  
      50  res50                    0       0.04071      46.67751      15.55246     457.41919        50        s4664n157e         0         0         0         0  
      51  res51                    0       0.05866      46.67522      15.55454     392.29068        51        s4664n157e         0         0         0         0  
      52  res52                    0       0.03461      46.67839      15.56182     342.08414        52        s4664n157e         0         0         0         0  
