rout_unit.con: written by SWAT+ editor v2.1.0 on 2025-01-10 12:35 for SWAT+ rev.2.1.4
      id  name                gis_id          area           lat           lon          elev       rtu               wst       cst      ovfl      rule   out_tot       obj_typ    obj_id       hyd_typ          frac  
       1  rtu0001                  0       0.22983      46.63837      15.64918     339.78460         1        s4664n157e         0         0         0         3            ru      1390           tot       0.54037            ru      4636           tot       0.45963           aqu         1           rhg       1.00000  
       2  rtu0002                  0       0.40121      46.65056      15.56813     306.82494         2        s4664n157e         0         0         0         2            ru      5532           tot       1.00000           aqu         1           rhg       1.00000  
       3  rtu0003                  0       0.40569      46.64728      15.55106     299.62130         3        s4664n157e         0         0         0         2            ru      4715           tot       1.00000           aqu         1           rhg       1.00000  
       4  rtu0004                  0       0.37518      46.63817      15.55149     412.06127         4        s4664n157e         0         0         0         3            ru      4556           tot       0.53333            ru      5318           tot       0.46667           aqu         1           rhg       1.00000  
       5  rtu0005                  0       0.20644      46.66991      15.57926     317.12875         5        s4664n157e         0         0         0         3            ru       723           tot       0.51515            ru      5991           tot       0.48485           aqu         1           rhg       1.00000  
       6  rtu0006                  0       1.97340      46.64461      15.56433     295.90657         6        s4664n157e         0         0         0         2            ru      4703           tot       1.00000           aqu         1           rhg       1.00000  
       7  rtu0007                  0       1.16465      46.64349      15.56466     297.89431         7        s4664n157e         0         0         0         2           sdc       866           tot       1.00000           aqu         1           rhg       1.00000  
       8  rtu0008                  0       0.22644      46.67056      15.57464     309.73153         8        s4664n157e         0         0         0         2            ru      2323           tot       1.00000           aqu         1           rhg       1.00000  
       9  rtu0009                  0       0.02392      46.66547      15.57343     340.42562         9        s4664n157e         0         0         0         2            ru      5403           tot       1.00000           aqu         1           rhg       1.00000  
      10  rtu0010                  0       0.40613      46.65516      15.55269     315.06828        10        s4664n157e         0         0         0         2            ru      5874           tot       1.00000           aqu         1           rhg       1.00000  
      11  rtu0011                  0       1.44941      46.63430      15.56360     320.83887        11        s4664n157e         0         0         0         2            ru      3890           tot       1.00000           aqu         1           rhg       1.00000  
      12  rtu0012                  0       1.80308      46.67717      15.56859     360.43625        12        s4664n157e         0         0         0         2            ru      2381           tot       1.00000           aqu         1           rhg       1.00000  
      13  rtu0013                  0       0.05360      46.67084      15.61983     377.52514        13        s4664n157e         0         0         0         3            ru      2797           tot       0.53333            ru      3060           tot       0.46667           aqu         1           rhg       1.00000  
      14  rtu0014                  0       0.61949      46.65175      15.64111     325.33473        14        s4664n157e         0         0         0         2            ru      1256           tot       1.00000           aqu         1           rhg       1.00000  
      15  rtu0015                  0       1.32241      46.61483      15.66348     259.67687        15        s4664n157e         0         0         0         3           sdc       811           tot       0.36193            ru      4463           tot       0.63807           aqu         1           rhg       1.00000  
      16  rtu0016                  0       0.08254      46.62617      15.63527     269.65306        16        s4664n157e         0         0         0         2            ru      5277           tot       1.00000           aqu         1           rhg       1.00000  
      17  rtu0017                  0       0.52209      46.66086      15.60710     301.75450        17        s4664n157e         0         0         0         2            ru      5610           tot       1.00000           aqu         1           rhg       1.00000  
      18  rtu0018                  0       0.34043      46.66230      15.60777     296.87765        18        s4664n157e         0         0         0         2            ru      5577           tot       1.00000           aqu         1           rhg       1.00000  
      19  rtu0019                  0       0.70861      46.66665      15.56831     347.55588        19        s4664n157e         0         0         0         4            ru      4074           tot       0.42391            ru      5087           tot       0.23913            ru      5844           tot       0.33696           aqu         1           rhg       1.00000  
      20  rtu0020                  0       3.11038      46.65552      15.56538     346.20547        20        s4664n157e         0         0         0         2            ru      2134           tot       1.00000           aqu         1           rhg       1.00000  
      21  rtu0021                  0       2.07640      46.62171      15.55021     538.81609        21        s4664n157e         0         0         0         2            ru      4479           tot       1.00000           aqu         1           rhg       1.00000  
      22  rtu0022                  0       0.59898      46.60887      15.66534     275.57291        22        s4664n157e         0         0         0         2            ru      5255           tot       1.00000           aqu         1           rhg       1.00000  
      23  rtu0023                  0       0.11508      46.63359      15.60664     288.91652        23        s4664n157e         0         0         0         3            ru      5611           tot       0.44898            ru      5934           tot       0.55102           aqu         1           rhg       1.00000  
      24  rtu0024                  0       0.02330      46.66318      15.64871     373.27897        24        s4664n157e         0         0         0         2            ru      5558           tot       1.00000           aqu         1           rhg       1.00000  
      25  rtu0025                  0       0.49576      46.63237      15.63688     270.31453        25        s4664n157e         0         0         0         2           sdc       343           tot       1.00000           aqu         1           rhg       1.00000  
      26  rtu0026                  0       0.28724      46.63189      15.64751     356.36468        26        s4664n157e         0         0         0         2            ru      5202           tot       1.00000           aqu         1           rhg       1.00000  
      27  rtu0027                  0       0.30741      46.64799      15.55832     315.89545        27        s4664n157e         0         0         0         2           sdc       543           tot       1.00000           aqu         1           rhg       1.00000  
      28  rtu0028                  0       1.84400      46.63854      15.57408     301.20853        28        s4664n157e         0         0         0         2            ru      4567           tot       1.00000           aqu         1           rhg       1.00000  
      29  rtu0029                  0       0.07728      46.67097      15.56284     408.29884        29        s4664n157e         0         0         0         2            ru      5612           tot       1.00000           aqu         1           rhg       1.00000  
      30  rtu0030                  0       0.04522      46.66917      15.64150     348.44639        30        s4664n157e         0         0         0         2            ru      5385           tot       1.00000           aqu         1           rhg       1.00000  
      31  rtu0031                  0       0.40996      46.65873      15.62100     347.86177        31        s4664n157e         0         0         0         2            ru      6046           tot       1.00000           aqu         1           rhg       1.00000  
      32  rtu0032                  0       1.49902      46.64622      15.65260     310.57792        32        s4664n157e         0         0         0         2            ru      5518           tot       1.00000           aqu         1           rhg       1.00000  
      33  rtu0033                  0       0.06112      46.66188      15.63104     408.86557        33        s4664n157e         0         0         0         2            ru      3521           tot       1.00000           aqu         1           rhg       1.00000  
      34  rtu0034                  0       0.67907      46.67268      15.57118     317.33010        34        s4664n157e         0         0         0         2            ru      1492           tot       1.00000           aqu         1           rhg       1.00000  
      35  rtu0035                  0       0.97634      46.60509      15.64241     260.07180        35        s4664n157e         0         0         0         3            ru      1227           tot       0.24581            ru      3685           tot       0.75419           aqu         1           rhg       1.00000  
      36  rtu0036                  0       0.34817      46.65218      15.56606     305.12003        36        s4664n157e         0         0         0         2            ru      5355           tot       1.00000           aqu         1           rhg       1.00000  
      37  rtu0037                  0       5.64269      46.64489      15.61413     274.82559        37        s4664n157e         0         0         0         3           sdc       501           tot       0.45032            ru      4788           tot       0.54968           aqu         1           rhg       1.00000  
      38  rtu0038                  0       0.27249      46.64521      15.56966     290.29121        38        s4664n157e         0         0         0         3           sdc       526           tot       0.43478            ru      4704           tot       0.56522           aqu         1           rhg       1.00000  
      39  rtu0039                  0       0.14410      46.68414      15.58543     468.84712        39        s4664n157e         0         0         0         2            ru      5599           tot       1.00000           aqu         1           rhg       1.00000  
      40  rtu0040                  0       2.70186      46.60746      15.64268     260.16604        40        s4664n157e         0         0         0         4           sdc        48           tot       0.46784            ru      4341           tot       0.31871            ru      6052           tot       0.21345           aqu         1           rhg       1.00000  
      41  rtu0041                  0       4.89757      46.67234      15.58982     328.60237        41        s4664n157e         0         0         0         3            ru      1162           tot       0.27877            ru      2337           tot       0.72123           aqu         1           rhg       1.00000  
      42  rtu0042                  0       0.03348      46.66125      15.63230     413.60417        42        s4664n157e         0         0         0         2            ru      5366           tot       1.00000           aqu         1           rhg       1.00000  
      43  rtu0043                  0       0.03277      46.65300      15.57322     368.42378        43        s4664n157e         0         0         0         2            ru      5738           tot       1.00000           aqu         1           rhg       1.00000  
      44  rtu0044                  0       1.12790      46.67616      15.58150     389.27748        44        s4664n157e         0         0         0         2            ru      5389           tot       1.00000           aqu         1           rhg       1.00000  
      45  rtu0045                  0       2.46662      46.67787      15.60535     310.31435        45        s4664n157e         0         0         0         3           sdc       755           tot       0.56766            ru      2397           tot       0.43234           aqu         1           rhg       1.00000  
      46  rtu0046                  0       0.79763      46.61524      15.61032     356.05766        46        s4664n157e         0         0         0         2            ru      5430           tot       1.00000           aqu         1           rhg       1.00000  
      47  rtu0047                  0       0.02170      46.64184      15.56878     334.16972        47        s4664n157e         0         0         0         2            ru      4011           tot       1.00000           aqu         1           rhg       1.00000  
      48  rtu0048                  0       0.43061      46.65747      15.57837     301.33163        48        s4664n157e         0         0         0         2            ru      2169           tot       1.00000           aqu         1           rhg       1.00000  
      49  rtu0049                  0       2.30180      46.63850      15.59946     276.48336        49        s4664n157e         0         0         0         3            ru      1219           tot       0.42017            ru      4590           tot       0.57983           aqu         1           rhg       1.00000  
      50  rtu0050                  0       0.34974      46.67003      15.60824     301.89760        50        s4664n157e         0         0         0         2            ru      5613           tot       1.00000           aqu         1           rhg       1.00000  
      51  rtu0051                  0       1.46094      46.62407      15.53861     590.76089        51        s4664n157e         0         0         0         2            ru      5271           tot       1.00000           aqu         1           rhg       1.00000  
      52  rtu0052                  0       0.80136      46.68296      15.59617     442.01810        52        s4664n157e         0         0         0         2            ru      5598           tot       1.00000           aqu         1           rhg       1.00000  
      53  rtu0053                  0       0.05926      46.67481      15.57923     429.17707        53        s4664n157e         0         0         0         2            ru      5816           tot       1.00000           aqu         1           rhg       1.00000  
      54  rtu0054                  0       0.47441      46.67961      15.59073     347.74388        54        s4664n157e         0         0         0         3            ru      5390           tot       0.76923            ru      5817           tot       0.23077           aqu         1           rhg       1.00000  
      55  rtu0055                  0       0.44548      46.64619      15.55318     304.04865        55        s4664n157e         0         0         0         2            ru      4880           tot       1.00000           aqu         1           rhg       1.00000  
      56  rtu0056                  0       0.53401      46.65693      15.55106     321.79023        56        s4664n157e         0         0         0         2            ru      4860           tot       1.00000           aqu         1           rhg       1.00000  
      57  rtu0057                  0       0.27043      46.64311      15.58329     284.91131        57        s4664n157e         0         0         0         2            ru      4747           tot       1.00000           aqu         1           rhg       1.00000  
      58  rtu0058                  0       0.57161      46.64989      15.55345     305.38793        58        s4664n157e         0         0         0         2            ru      4093           tot       1.00000           aqu         1           rhg       1.00000  
      59  rtu0059                  0       0.66735      46.64448      15.55442     296.90664        59        s4664n157e         0         0         0         2            ru      3424           tot       1.00000           aqu         1           rhg       1.00000  
      60  rtu0060                  0       0.68762      46.64749      15.54984     300.66909        60        s4664n157e         0         0         0         3            ru      4711           tot       0.28571            ru      4713           tot       0.71429           aqu         1           rhg       1.00000  
      61  rtu0061                  0       1.45041      46.65443      15.55333     318.63367        61        s4664n157e         0         0         0         2            ru      5527           tot       1.00000           aqu         1           rhg       1.00000  
      62  rtu0062                  0       0.85342      46.65557      15.55138     309.08519        62        s4664n157e         0         0         0         2            ru      2197           tot       1.00000           aqu         1           rhg       1.00000  
      63  rtu0063                  0       0.04639      46.67088      15.56639     400.35914        63        s4664n157e         0         0         0         1           aqu         1           rhg       1.00000  
      64  rtu0064                  0       0.37981      46.64003      15.62449     337.16636        64        s4664n157e         0         0         0         2            ru       454           tot       1.00000           aqu         1           rhg       1.00000  
      65  rtu0065                  0       0.14176      46.63655      15.55294     413.75071        65        s4664n157e         0         0         0         2            ru      5888           tot       1.00000           aqu         1           rhg       1.00000  
      66  rtu0066                  0       0.35690      46.64294      15.55324     330.96836        66        s4664n157e         0         0         0         4            ru      1971           tot       0.41935            ru      2642           tot       0.19355            ru      5490           tot       0.38710           aqu         1           rhg       1.00000  
      67  rtu0067                  0       0.49622      46.61819      15.63535     264.00000        67        s4664n157e         0         0         0         1           aqu         1           rhg       1.00000  
      68  rtu0068                  0       0.31100      46.61790      15.63616     263.89653        68        s4664n157e         0         0         0         4           sdc       118           tot       0.24390            ru      1653           tot       0.29268            ru      4523           tot       0.46341           aqu         1           rhg       1.00000  
      69  rtu0069                  0       0.01584      46.64869      15.57452     339.35443        69        s4664n157e         0         0         0         2            ru      5531           tot       1.00000           aqu         1           rhg       1.00000  
      70  rtu0070                  0       0.55519      46.60174      15.65420     257.86908        70        s4664n157e         0         0         0         5           sdc       784           tot       0.15459            ru      3699           tot       0.37681            ru      3700           tot       0.29952            ru      5415           tot       0.16908           aqu         1           rhg       1.00000  
      71  rtu0071                  0       0.26621      46.65479      15.61990     322.81818        71        s4664n157e         0         0         0         2            ru      5547           tot       1.00000           aqu         1           rhg       1.00000  
      72  rtu0072                  0       0.74456      46.64216      15.57536     323.84431        72        s4664n157e         0         0         0         2            ru      4728           tot       1.00000           aqu         1           rhg       1.00000  
      73  rtu0073                  0       0.34964      46.64592      15.55763     301.89520        73        s4664n157e         0         0         0         2            ru      4882           tot       1.00000           aqu         1           rhg       1.00000  
      74  rtu0074                  0       0.11938      46.64741      15.57960     290.96315        74        s4664n157e         0         0         0         2            ru       105           tot       1.00000           aqu         1           rhg       1.00000  
      75  rtu0075                  0       0.20277      46.67023      15.56482     413.86555        75        s4664n157e         0         0         0         2            ru      5586           tot       1.00000           aqu         1           rhg       1.00000  
      76  rtu0076                  0       0.36012      46.64662      15.55886     300.95981        76        s4664n157e         0         0         0         2           sdc       543           tot       1.00000           aqu         1           rhg       1.00000  
      77  rtu0077                  0       0.37858      46.64354      15.55948     355.65515        77        s4664n157e         0         0         0         2            ru      1305           tot       1.00000           aqu         1           rhg       1.00000  
      78  rtu0078                  0       0.72765      46.64416      15.55622     296.20019        78        s4664n157e         0         0         0         2            ru      5410           tot       1.00000           aqu         1           rhg       1.00000  
      79  rtu0079                  0       0.42198      46.64530      15.55463     299.56781        79        s4664n157e         0         0         0         2            ru      5410           tot       1.00000           aqu         1           rhg       1.00000  
      80  rtu0080                  0       0.53894      46.64733      15.56678     323.49954        80        s4664n157e         0         0         0         3            ru      4024           tot       0.41667            ru      5344           tot       0.58333           aqu         1           rhg       1.00000  
      81  rtu0081                  0       1.10370      46.65824      15.56088     355.00987        81        s4664n157e         0         0         0         3            ru      5583           tot       0.29412            ru      5879           tot       0.70588           aqu         1           rhg       1.00000  
      82  rtu0082                  0       0.48039      46.66975      15.57138     344.42967        82        s4664n157e         0         0         0         2            ru       179           tot       1.00000           aqu         1           rhg       1.00000  
      83  rtu0083                  0       1.16136      46.64299      15.57892     287.11772        83        s4664n157e         0         0         0         2            ru      4028           tot       1.00000           aqu         1           rhg       1.00000  
      84  rtu0084                  0       0.26331      46.62244      15.56188     554.31122        84        s4664n157e         0         0         0         2            ru      2506           tot       1.00000           aqu         1           rhg       1.00000  
      85  rtu0085                  0       0.07207      46.62175      15.66163     318.12639        85        s4664n157e         0         0         0         2            ru      5671           tot       1.00000           aqu         1           rhg       1.00000  
      86  rtu0086                  0       1.45872      46.64999      15.57303     348.97915        86        s4664n157e         0         0         0         2            ru      5531           tot       1.00000           aqu         1           rhg       1.00000  
      87  rtu0087                  0       0.43170      46.64384      15.58080     285.07419        87        s4664n157e         0         0         0         2            ru      4745           tot       1.00000           aqu         1           rhg       1.00000  
      88  rtu0088                  0       0.69259      46.64583      15.57465     298.77348        88        s4664n157e         0         0         0         2            ru      5409           tot       1.00000           aqu         1           rhg       1.00000  
      89  rtu0089                  0       0.89038      46.63811      15.57211     304.50388        89        s4664n157e         0         0         0         2            ru      4560           tot       1.00000           aqu         1           rhg       1.00000  
      90  rtu0090                  0       0.06048      46.63696      15.55506     414.74917        90        s4664n157e         0         0         0         2            ru      1870           tot       1.00000           aqu         1           rhg       1.00000  
      91  rtu0091                  0       0.22282      46.64178      15.56514     323.01620        91        s4664n157e         0         0         0         3            ru      1402           tot       0.29365            ru      1961           tot       0.70635           aqu         1           rhg       1.00000  
      92  rtu0092                  0       0.21485      46.63640      15.54774     408.88412        92        s4664n157e         0         0         0         2            ru      5634           tot       1.00000           aqu         1           rhg       1.00000  
      93  rtu0093                  0       0.13851      46.65863      15.57125     366.07570        93        s4664n157e         0         0         0         2            ru      5365           tot       1.00000           aqu         1           rhg       1.00000  
      94  rtu0094                  0       0.93331      46.65127      15.56943     312.64959        94        s4664n157e         0         0         0         2            ru       871           tot       1.00000           aqu         1           rhg       1.00000  
      95  rtu0095                  0       0.22599      46.65736      15.56000     332.05352        95        s4664n157e         0         0         0         2            ru      5878           tot       1.00000           aqu         1           rhg       1.00000  
      96  rtu0096                  0       0.03409      46.63603      15.62938     340.84257        96        s4664n157e         0         0         0         2            ru      5212           tot       1.00000           aqu         1           rhg       1.00000  
      97  rtu0097                  0       0.45307      46.64561      15.55786     297.04594        97        s4664n157e         0         0         0         2            ru      4708           tot       1.00000           aqu         1           rhg       1.00000  
      98  rtu0098                  0       3.18037      46.64483      15.57246     289.83547        98        s4664n157e         0         0         0         2            ru      4705           tot       1.00000           aqu         1           rhg       1.00000  
      99  rtu0099                  0       0.12857      46.62045      15.54407     599.57710        99        s4664n157e         0         0         0         2            ru      5267           tot       1.00000           aqu         1           rhg       1.00000  
     100  rtu0100                  0       0.38658      46.65637      15.56756     357.47258       100        s4664n157e         0         0         0         2            ru      5584           tot       1.00000           aqu         1           rhg       1.00000  
     101  rtu0101                  0       0.48571      46.65904      15.57705     302.04827       101        s4664n157e         0         0         0         2           sdc       789           tot       1.00000           aqu         1           rhg       1.00000  
     102  rtu0102                  0       0.04078      46.62881      15.55261     391.84559       102        s4664n157e         0         0         0         4            ru      1737           tot       0.37778            ru      5824           tot       0.31111            ru      6263           tot       0.31111           aqu         1           rhg       1.00000  
     103  rtu0103                  0       0.70182      46.63990      15.57812     294.49131       103        s4664n157e         0         0         0         2            ru      4571           tot       1.00000           aqu         1           rhg       1.00000  
     104  rtu0104                  0       0.19860      46.63131      15.66034     326.31203       104        s4664n157e         0         0         0         4            ru      1371           tot       0.40991            ru      1798           tot       0.35135            ru      2553           tot       0.23874           aqu         1           rhg       1.00000  
     105  rtu0105                  0       0.61929      46.64697      15.57966     289.78661       105        s4664n157e         0         0         0         2            ru      3440           tot       1.00000           aqu         1           rhg       1.00000  