slr.cli: Solar radiation file names - file written by SWATprepR R package 2025-01-10 12:34:48.866015
filename
sta_id1.slr
sta_id2.slr
