soils.sol: written by SWAT+ editor v2.1.0 on 2025-01-10 12:35 for SWAT+ rev.2.1.4
name                            nly           hyd_grp        dp_tot    anion_excl      perc_crk  texture                              dp            bd           awc        soil_k        carbon          clay          silt          sand          rock           alb        usle_k            ec         caco3            ph  
ZPP952                            3                 B    1000.00000       0.50000       0.50000  GII-GII-GII                
                                                                                                                                60.00000       1.34475       0.15870       0.63859      38.20000      25.30000      49.20000      25.50000       0.00000       0.02000       0.18000       0.00000       0.00000       0.00000  
                                                                                                                               230.00000       1.34475       0.15870       0.63859      10.80000      25.30000      49.20000      25.50000      50.00000       0.09000       0.18000       0.00000       0.00000       0.00000  
                                                                                                                               410.00000       1.34475       0.15870       0.63859      10.80000      25.30000      49.20000      25.50000      50.00000       0.09000       0.18000       0.00000       0.00000       0.00000  
ZPP400                            4                 C    1000.00000       0.50000       0.50000  I-I-I-I                    
                                                                                                                                70.00000       1.42875       0.13372       1.04828       2.60000      18.00000      38.80000      43.20000       0.00000       0.16000       0.17000       0.00000       0.00000       0.00000  
                                                                                                                               450.00000       1.42606       0.13635       1.06258       1.70000      18.00000      40.20000      41.80000       0.00000       0.16000       0.18000       0.00000       0.00000       0.00000  
                                                                                                                               800.00000       1.40044       0.13092       0.71536       0.30000      21.60000      36.00000      42.40000       0.00000       0.16000       0.17000       0.00000       0.00000       0.00000  
                                                                                                                              1000.00000       1.41947       0.13203       0.91604       0.30000      19.20000      37.50000      43.30000       0.00000       0.16000       0.18000       0.00000       0.00000       0.00000  
ZPP447                            3                 C    1000.00000       0.50000       0.50000  IP-PI-PI                   
                                                                                                                               220.00000       1.54665       0.08543       1.88188       1.90000      12.60000      10.10000      77.30000       0.00000       0.16000       0.13000       0.00000       0.00000       0.00000  
                                                                                                                               500.00000       1.53745       0.08819       1.76072       0.90000      13.00000      12.10000      74.90000       0.00000       0.16000       0.14000       0.00000       0.00000       0.00000  
                                                                                                                               800.00000       1.47351       0.09031       0.81523       0.90000      18.60000      12.40000      69.00000      10.00000       0.23000       0.14000       0.00000       0.00000       0.00000  
ZPP1207                           4                 D    1000.00000       0.50000       0.50000  MI-MI-PI-PI                
                                                                                                                                90.00000       1.43548       0.16220       1.72983       5.40000      14.60000      54.70000      30.70000       1.00000       0.09000       0.19000       0.00000       0.00000       0.00000  
                                                                                                                               250.00000       1.40977       0.16263       1.38352       3.30000      16.90000      54.60000      28.50000       5.00000       0.16000       0.19000       0.00000       0.00000       0.00000  
                                                                                                                               450.00000       1.44547       0.11791       0.97253       1.10000      18.00000      30.10000      51.90000       6.00000       0.16000       0.17175       0.00000       0.00000       0.00000  
                                                                                                                               630.00000       1.44547       0.11791       0.97253       1.10000      18.00000      30.10000      51.90000      90.00000       0.16000       0.17175       0.00000       0.00000       0.00000  
ZPP1507                           2                 C    1000.00000       0.50000       0.50000  I-MI                       
                                                                                                                               220.00000       1.42852       0.15060       1.36742       3.20000      16.30000      48.20000      35.50000       0.00000       0.16000       0.18000       0.00000       0.00000       0.00000  
                                                                                                                               450.00000       1.42795       0.15532       1.46139       2.00000      15.90000      50.80000      33.30000       7.50000       0.16000       0.18000       0.00000       0.00000       0.00000  
ZPP581                            3                 C    1000.00000       0.50000       0.50000  G-MG-MI                    
                                                                                                                               100.00000       1.18672       0.14985       0.26671      11.20000      56.90000      36.90000       5.20000       0.00000       0.09000       0.26000       0.00000       0.00000       0.00000  
                                                                                                                               260.00000       1.22521       0.17192       0.40689       7.20000      40.90000      59.10000       0.00000       0.00000       0.30000       0.47000       0.00000       0.00000       0.00000  
                                                                                                                               300.00000       1.47342       0.17127       2.55126       1.60000      11.10000      59.40000      29.50000       0.00000       0.30000       0.20000       0.00000       0.00000       0.00000  
ZPP1104                           3                 C    1000.00000       0.50000       0.50000  MI-MG-MGI                  
                                                                                                                               140.00000       1.34616       0.18679       1.41587       3.50000      19.80000      72.70000       7.50000       0.00000       0.16000       0.37000       0.00000       0.00000       0.00000  
                                                                                                                               550.00000       1.23695       0.15965       0.26071       0.50000      44.70000      42.40000      12.90000       0.00000       0.23000       0.20000       0.00000       0.00000       0.00000  
                                                                                                                               800.00000       1.25414       0.17530       0.45035       0.00000      36.00000      58.70000       5.30000       0.00000       0.30000       0.35000       0.00000       0.00000       0.00000  
ZPP1499                           4                 C    1000.00000       0.50000       0.50000  MI-MI-MIGI-GI              
                                                                                                                                80.00000       1.36377       0.17064       1.02870       5.20000      20.90000      58.30000      20.80000       0.00000       0.16000       0.21000       0.00000       0.00000       0.00000  
                                                                                                                               200.00000       1.37545       0.16358       0.99828       2.40000      20.50000      54.10000      25.40000       0.00000       0.16000       0.19000       0.00000       0.00000       0.00000  
                                                                                                                               360.00000       1.34225       0.16095       0.65252       0.70000      25.30000      50.50000      24.20000       0.00000       0.16000       0.19000       0.00000       0.00000       0.00000  
                                                                                                                               650.00000       1.30630       0.15945       0.42064       0.00000      31.40000      46.60000      22.00000       0.00000       0.23000       0.19000       0.00000       0.00000       0.00000  
ZPP933                            4                 C    1000.00000       0.50000       0.50000  MG-MG-MG-MG                
                                                                                                                                50.00000       1.24281       0.16668       0.31582       5.30000      41.30000      48.30000       9.90000       0.00000       0.16000       0.24000       0.00000       0.00000       0.00000  
                                                                                                                               140.00000       1.21851       0.16204       0.27927       3.50000      47.10000      45.60000       7.30000       0.00000       0.13000       0.26000       0.00000       0.00000       0.00000  
                                                                                                                               400.00000       1.21015       0.15908       0.26810       1.80000      49.60000      43.50000       6.90000       0.00000       0.23000       0.26000       0.00000       0.00000       0.00000  
                                                                                                                               800.00000       1.21015       0.15908       0.26810       1.80000      49.60000      43.50000       6.90000       0.00000       0.23000       0.26000       0.00000       0.00000       0.00000  
ZPP999                            5                 D    1000.00000       0.50000       0.50000  MGI-MGI-MGI-MGG-MGG-G-G-G-G  
                                                                                                                               120.00000       1.30448       0.17113       0.55882       2.70000      29.20000      55.30000      15.50000       0.00000       0.23000       0.22000       0.00000       0.00000       0.00000  
                                                                                                                               190.00000       1.30256       0.17241       0.56988       1.90000      29.20000      56.30000      14.50000       0.00000       0.16000       0.23000       0.00000       0.00000       0.00000  
                                                                                                                               400.00000       1.31444       0.17716       0.74749       0.70000      26.20000      61.40000      12.40000       1.00000       0.23000       0.27000       0.00000       0.00000       0.00000  
                                                                                                                               590.00000       1.25901       0.15081       0.23491       0.20000      42.60000      36.70000      20.70000       5.00000       0.23000       0.17000       0.00000       0.00000       0.00000  
                                                                                                                               860.00000       1.23556       0.15664       0.24401       0.20000      45.90000      39.90000      14.20000      10.00000       0.23000       0.19000       0.00000       0.00000       0.00000  
ZPP993                            3                 C    1000.00000       0.50000       0.50000  MGI-MGI-MGI                
                                                                                                                               230.00000       1.28695       0.17777       0.60101       2.90000      30.10000      61.20000       8.70000       0.00000       0.23000       0.30000       0.00000       0.00000       0.00000  
                                                                                                                               460.00000       1.28383       0.17205       0.47372       1.50000      32.40000      54.90000      12.70000       0.00000       0.30000       0.24000       0.00000       0.00000       0.00000  
                                                                                                                               670.00000       1.32514       0.16702       0.62209       0.00000      26.80000      53.50000      19.70000       0.00000       0.30000       0.21000       0.00000       0.00000       0.00000  
ZPP990                            3                 C    1000.00000       0.50000       0.50000  PII-PI-PI                  
                                                                                                                               260.00000       1.47265       0.12254       1.42073       3.00000      14.90000      33.50000      51.60000      10.00000       0.09000       0.17000       0.00000       0.00000       0.00000  
                                                                                                                               500.00000       1.47592       0.10437       1.10556       1.30000      16.50000      22.40000      61.10000      50.00000       0.16000       0.17000       0.00000       0.00000       0.00000  
                                                                                                                               720.00000       1.47592       0.10437       1.10556       1.30000      16.50000      22.40000      61.10000      80.00000       0.16000       0.17000       0.00000       0.00000       0.00000  
ZPP1208                           3                 C    1000.00000       0.50000       0.50000  I-I-I                      
                                                                                                                               200.00000       1.44553       0.14783       1.54625       4.40000      15.00000      47.00000      38.00000      10.00000       0.09000       0.18119       0.00000       0.00000       0.00000  
                                                                                                                               430.00000       1.38434       0.14062       0.70717       2.00000      22.40000      40.80000      36.80000      10.00000       0.09000       0.17230       0.00000       0.00000       0.00000  
                                                                                                                               600.00000       1.38434       0.14062       0.70717       2.00000      22.40000      40.80000      36.80000      20.00000       0.16000       0.17230       0.00000       0.00000       0.00000  
