tmp.cli: Temperature file names - file written by SWATprepR R package 2025-01-10 12:34:48.784941
filename
sta_id1.tmp
sta_id2.tmp
