topography.hyd: written by SWAT+ editor v2.1.0 on 2025-01-10 12:35 for SWAT+ rev.2.1.4
name                       slp       slp_len       lat_len      dist_cha         depos  
topohru0001            0.17183      30.00000      30.00000     121.00000       0.00000  
topohru0002            0.19945      30.00000      30.00000     121.00000       0.00000  
topohru0003            0.03911      30.00000      30.00000     121.00000       0.00000  
topohru0004            0.26973      30.00000      30.00000     121.00000       0.00000  
topohru0005            0.13496      30.00000      30.00000     121.00000       0.00000  
topohru0006            0.08962      30.00000      30.00000     121.00000       0.00000  
topohru0007            0.05894      30.00000      30.00000     121.00000       0.00000  
topohru0008            0.08889      30.00000      30.00000     121.00000       0.00000  
topohru0009            0.18181      30.00000      30.00000     121.00000       0.00000  
topohru0010            0.23595      30.00000      30.00000     121.00000       0.00000  
topohru0011            0.10291      30.00000      30.00000     121.00000       0.00000  
topohru0012            0.27915      30.00000      30.00000     121.00000       0.00000  
topohru0013            0.14079      30.00000      30.00000     121.00000       0.00000  
topohru0014            0.24124      30.00000      30.00000     121.00000       0.00000  
topohru0015            0.07216      30.00000      30.00000     121.00000       0.00000  
topohru0016            0.23427      30.00000      30.00000     121.00000       0.00000  
topohru0017            0.17927      30.00000      30.00000     121.00000       0.00000  
topohru0018            0.13022      30.00000      30.00000     121.00000       0.00000  
topohru0019            0.20015      30.00000      30.00000     121.00000       0.00000  
topohru0020            0.18165      30.00000      30.00000     121.00000       0.00000  
topohru0021            0.22943      30.00000      30.00000     121.00000       0.00000  
topohru0022            0.24105      30.00000      30.00000     121.00000       0.00000  
topohru0023            0.17865      30.00000      30.00000     121.00000       0.00000  
topohru0024            0.15808      30.00000      30.00000     121.00000       0.00000  
topohru0025            0.14617      30.00000      30.00000     121.00000       0.00000  
topohru0026            0.34791      30.00000      30.00000     121.00000       0.00000  
topohru0027            0.14949      30.00000      30.00000     121.00000       0.00000  
topohru0028            0.08415      30.00000      30.00000     121.00000       0.00000  
topohru0029            0.24773      30.00000      30.00000     121.00000       0.00000  
topohru0030            0.15720      30.00000      30.00000     121.00000       0.00000  
topohru0031            0.19581      30.00000      30.00000     121.00000       0.00000  
topohru0032            0.23131      30.00000      30.00000     121.00000       0.00000  
topohru0033            0.18736      30.00000      30.00000     121.00000       0.00000  
topohru0034            0.07229      30.00000      30.00000     121.00000       0.00000  
topohru0035            0.05040      30.00000      30.00000     121.00000       0.00000  
topohru0036            0.11134      30.00000      30.00000     121.00000       0.00000  
topohru0037            0.04394      30.00000      30.00000     121.00000       0.00000  
topohru0038            0.04260      30.00000      30.00000     121.00000       0.00000  
topohru0039            0.26872      30.00000      30.00000     121.00000       0.00000  
topohru0040            0.01943      30.00000      30.00000     121.00000       0.00000  
topohru0041            0.18843      30.00000      30.00000     121.00000       0.00000  
topohru0042            0.24605      30.00000      30.00000     121.00000       0.00000  
topohru0043            0.33302      30.00000      30.00000     121.00000       0.00000  
topohru0044            0.19795      30.00000      30.00000     121.00000       0.00000  
topohru0045            0.12438      30.00000      30.00000     121.00000       0.00000  
topohru0046            0.40463      30.00000      30.00000     121.00000       0.00000  
topohru0047            0.20687      30.00000      30.00000     121.00000       0.00000  
topohru0048            0.07912      30.00000      30.00000     121.00000       0.00000  
topohru0049            0.03688      30.00000      30.00000     121.00000       0.00000  
topohru0050            0.13095      30.00000      30.00000     121.00000       0.00000  
topohru0051            0.19788      30.00000      30.00000     121.00000       0.00000  
topohru0052            0.27064      30.00000      30.00000     121.00000       0.00000  
topohru0053            0.26939      30.00000      30.00000     121.00000       0.00000  
topohru0054            0.19377      30.00000      30.00000     121.00000       0.00000  
topohru0055            0.13310      30.00000      30.00000     121.00000       0.00000  
topohru0056            0.24797      30.00000      30.00000     121.00000       0.00000  
topohru0057            0.07915      30.00000      30.00000     121.00000       0.00000  
topohru0058            0.14532      30.00000      30.00000     121.00000       0.00000  
topohru0059            0.02809      30.00000      30.00000     121.00000       0.00000  
topohru0060            0.01476      30.00000      30.00000     121.00000       0.00000  
topohru0061            0.23701      30.00000      30.00000     121.00000       0.00000  
topohru0062            0.07908      30.00000      30.00000     121.00000       0.00000  
topohru0063            0.13234      30.00000      30.00000     121.00000       0.00000  
topohru0064            0.26464      30.00000      30.00000     121.00000       0.00000  
topohru0065            0.21564      30.00000      30.00000     121.00000       0.00000  
topohru0066            0.34538      30.00000      30.00000     121.00000       0.00000  
topohru0067            0.00000      30.00000      30.00000     121.00000       0.00000  
topohru0068            0.04221      30.00000      30.00000     121.00000       0.00000  
topohru0069            0.08184      30.00000      30.00000     121.00000       0.00000  
topohru0070            0.03500      30.00000      30.00000     121.00000       0.00000  
topohru0071            0.12612      30.00000      30.00000     121.00000       0.00000  
topohru0072            0.20484      30.00000      30.00000     121.00000       0.00000  
topohru0073            0.19736      30.00000      30.00000     121.00000       0.00000  
topohru0074            0.07752      30.00000      30.00000     121.00000       0.00000  
topohru0075            0.21403      30.00000      30.00000     121.00000       0.00000  
topohru0076            0.12990      30.00000      30.00000     121.00000       0.00000  
topohru0077            0.26841      30.00000      30.00000     121.00000       0.00000  
topohru0078            0.01417      30.00000      30.00000     121.00000       0.00000  
topohru0079            0.07123      30.00000      30.00000     121.00000       0.00000  
topohru0080            0.18484      30.00000      30.00000     121.00000       0.00000  
topohru0081            0.23721      30.00000      30.00000     121.00000       0.00000  
topohru0082            0.19578      30.00000      30.00000     121.00000       0.00000  
topohru0083            0.06539      30.00000      30.00000     121.00000       0.00000  
topohru0084            0.15421      30.00000      30.00000     121.00000       0.00000  
topohru0085            0.20567      30.00000      30.00000     121.00000       0.00000  
topohru0086            0.13125      30.00000      30.00000     121.00000       0.00000  
topohru0087            0.13839      30.00000      30.00000     121.00000       0.00000  
topohru0088            0.17076      30.00000      30.00000     121.00000       0.00000  
topohru0089            0.09951      30.00000      30.00000     121.00000       0.00000  
topohru0090            0.14336      30.00000      30.00000     121.00000       0.00000  
topohru0091            0.29112      30.00000      30.00000     121.00000       0.00000  
topohru0092            0.30836      30.00000      30.00000     121.00000       0.00000  
topohru0093            0.18715      30.00000      30.00000     121.00000       0.00000  
topohru0094            0.19381      30.00000      30.00000     121.00000       0.00000  
topohru0095            0.26825      30.00000      30.00000     121.00000       0.00000  
topohru0096            0.18756      30.00000      30.00000     121.00000       0.00000  
topohru0097            0.12796      30.00000      30.00000     121.00000       0.00000  
topohru0098            0.03162      30.00000      30.00000     121.00000       0.00000  
topohru0099            0.20142      30.00000      30.00000     121.00000       0.00000  
topohru0100            0.15459      30.00000      30.00000     121.00000       0.00000  
topohru0101            0.05491      30.00000      30.00000     121.00000       0.00000  
topohru0102            0.18163      30.00000      30.00000     121.00000       0.00000  
topohru0103            0.07984      30.00000      30.00000     121.00000       0.00000  
topohru0104            0.20422      30.00000      30.00000     121.00000       0.00000  
topohru0105            0.03956      30.00000      30.00000     121.00000       0.00000  
topohru0106            0.19820      30.00000      30.00000     121.00000       0.00000  
topohru0107            0.12085      30.00000      30.00000     121.00000       0.00000  
topohru0108            0.19051      30.00000      30.00000     121.00000       0.00000  
topohru0109            0.12619      30.00000      30.00000     121.00000       0.00000  
topohru0110            0.18868      30.00000      30.00000     121.00000       0.00000  
topohru0111            0.16735      30.00000      30.00000     121.00000       0.00000  
topohru0112            0.30015      30.00000      30.00000     121.00000       0.00000  
topohru0113            0.20434      30.00000      30.00000     121.00000       0.00000  
topohru0114            0.38135      30.00000      30.00000     121.00000       0.00000  
topohru0115            0.11986      30.00000      30.00000     121.00000       0.00000  
topohru0116            0.10423      30.00000      30.00000     121.00000       0.00000  
topohru0117            0.18549      30.00000      30.00000     121.00000       0.00000  
topohru0118            0.26448      30.00000      30.00000     121.00000       0.00000  
topohru0119            0.31694      30.00000      30.00000     121.00000       0.00000  
topohru0120            0.03113      30.00000      30.00000     121.00000       0.00000  
topohru0121            0.12884      30.00000      30.00000     121.00000       0.00000  
topohru0122            0.21829      30.00000      30.00000     121.00000       0.00000  
topohru0123            0.05873      30.00000      30.00000     121.00000       0.00000  
topohru0124            0.04640      30.00000      30.00000     121.00000       0.00000  
topohru0125            0.19669      30.00000      30.00000     121.00000       0.00000  
topohru0126            0.24291      30.00000      30.00000     121.00000       0.00000  
topohru0127            0.05967      30.00000      30.00000     121.00000       0.00000  
topohru0128            0.19043      30.00000      30.00000     121.00000       0.00000  
topohru0129            0.02752      30.00000      30.00000     121.00000       0.00000  
topohru0130            0.24208      30.00000      30.00000     121.00000       0.00000  
topohru0131            0.22022      30.00000      30.00000     121.00000       0.00000  
topohru0132            0.23018      30.00000      30.00000     121.00000       0.00000  
topohru0133            0.04659      30.00000      30.00000     121.00000       0.00000  
topohru0134            0.21106      30.00000      30.00000     121.00000       0.00000  
topohru0135            0.06871      30.00000      30.00000     121.00000       0.00000  
topohru0136            0.23149      30.00000      30.00000     121.00000       0.00000  
topohru0137            0.05073      30.00000      30.00000     121.00000       0.00000  
topohru0138            0.17390      30.00000      30.00000     121.00000       0.00000  
topohru0139            0.16481      30.00000      30.00000     121.00000       0.00000  
topohru0140            0.16587      30.00000      30.00000     121.00000       0.00000  
topohru0141            0.04783      30.00000      30.00000     121.00000       0.00000  
topohru0142            0.29648      30.00000      30.00000     121.00000       0.00000  
topohru0143            0.04477      30.00000      30.00000     121.00000       0.00000  
topohru0144            0.12619      30.00000      30.00000     121.00000       0.00000  
topohru0145            0.08026      30.00000      30.00000     121.00000       0.00000  
topohru0146            0.41393      30.00000      30.00000     121.00000       0.00000  
topohru0147            0.18267      30.00000      30.00000     121.00000       0.00000  
topohru0148            0.13106      30.00000      30.00000     121.00000       0.00000  
topohru0149            0.21849      30.00000      30.00000     121.00000       0.00000  
topohru0150            0.10674      30.00000      30.00000     121.00000       0.00000  
topohru0151            0.14849      30.00000      30.00000     121.00000       0.00000  
topohru0152            0.18440      30.00000      30.00000     121.00000       0.00000  
topohru0153            0.07291      30.00000      30.00000     121.00000       0.00000  
topohru0154            0.14718      30.00000      30.00000     121.00000       0.00000  
topohru0155            0.17235      30.00000      30.00000     121.00000       0.00000  
topohru0156            0.10667      30.00000      30.00000     121.00000       0.00000  
topohru0157            0.32811      30.00000      30.00000     121.00000       0.00000  
topohru0158            0.27617      30.00000      30.00000     121.00000       0.00000  
topohru0159            0.17199      30.00000      30.00000     121.00000       0.00000  
topohru0160            0.33604      30.00000      30.00000     121.00000       0.00000  
topohru0161            0.14682      30.00000      30.00000     121.00000       0.00000  
topohru0162            0.29760      30.00000      30.00000     121.00000       0.00000  
topohru0163            0.02853      30.00000      30.00000     121.00000       0.00000  
topohru0164            0.03767      30.00000      30.00000     121.00000       0.00000  
topohru0165            0.22634      30.00000      30.00000     121.00000       0.00000  
topohru0166            0.20465      30.00000      30.00000     121.00000       0.00000  
topohru0167            0.16950      30.00000      30.00000     121.00000       0.00000  
topohru0168            0.15368      30.00000      30.00000     121.00000       0.00000  
topohru0169            0.12215      30.00000      30.00000     121.00000       0.00000  
topohru0170            0.23016      30.00000      30.00000     121.00000       0.00000  
topohru0171            0.08218      30.00000      30.00000     121.00000       0.00000  
topohru0172            0.46905      30.00000      30.00000     121.00000       0.00000  
topohru0173            0.06101      30.00000      30.00000     121.00000       0.00000  
topohru0174            0.17872      30.00000      30.00000     121.00000       0.00000  
topohru0175            0.03978      30.00000      30.00000     121.00000       0.00000  
topohru0176            0.22068      30.00000      30.00000     121.00000       0.00000  
topohru0177            0.10761      30.00000      30.00000     121.00000       0.00000  
topohru0178            0.16657      30.00000      30.00000     121.00000       0.00000  
topohru0179            0.18733      30.00000      30.00000     121.00000       0.00000  
topohru0180            0.16315      30.00000      30.00000     121.00000       0.00000  
topohru0181            0.23368      30.00000      30.00000     121.00000       0.00000  
topohru0182            0.12430      30.00000      30.00000     121.00000       0.00000  
topohru0183            0.13733      30.00000      30.00000     121.00000       0.00000  
topohru0184            0.07981      30.00000      30.00000     121.00000       0.00000  
topohru0185            0.17100      30.00000      30.00000     121.00000       0.00000  
topohru0186            0.11708      30.00000      30.00000     121.00000       0.00000  
topohru0187            0.14267      30.00000      30.00000     121.00000       0.00000  
topohru0188            0.25879      30.00000      30.00000     121.00000       0.00000  
topohru0189            0.17481      30.00000      30.00000     121.00000       0.00000  
topohru0190            0.33455      30.00000      30.00000     121.00000       0.00000  
topohru0191            0.02801      30.00000      30.00000     121.00000       0.00000  
topohru0192            0.11704      30.00000      30.00000     121.00000       0.00000  
topohru0193            0.12538      30.00000      30.00000     121.00000       0.00000  
topohru0194            0.14545      30.00000      30.00000     121.00000       0.00000  
topohru0195            0.40153      30.00000      30.00000     121.00000       0.00000  
topohru0196            0.17384      30.00000      30.00000     121.00000       0.00000  
topohru0197            0.17571      30.00000      30.00000     121.00000       0.00000  
topohru0198            0.19003      30.00000      30.00000     121.00000       0.00000  
topohru0199            0.32850      30.00000      30.00000     121.00000       0.00000  
topohru0200            0.33134      30.00000      30.00000     121.00000       0.00000  
topohru0201            0.19776      30.00000      30.00000     121.00000       0.00000  
topohru0202            0.21492      30.00000      30.00000     121.00000       0.00000  
topohru0203            0.28568      30.00000      30.00000     121.00000       0.00000  
topohru0204            0.10463      30.00000      30.00000     121.00000       0.00000  
topohru0205            0.18294      30.00000      30.00000     121.00000       0.00000  
topohru0206            0.03389      30.00000      30.00000     121.00000       0.00000  
topohru0207            0.00842      30.00000      30.00000     121.00000       0.00000  
topohru0208            0.15900      30.00000      30.00000     121.00000       0.00000  
topohru0209            0.18673      30.00000      30.00000     121.00000       0.00000  
topohru0210            0.12160      30.00000      30.00000     121.00000       0.00000  
topohru0211            0.03642      30.00000      30.00000     121.00000       0.00000  
topohru0212            0.03356      30.00000      30.00000     121.00000       0.00000  
topohru0213            0.23770      30.00000      30.00000     121.00000       0.00000  
topohru0214            0.26953      30.00000      30.00000     121.00000       0.00000  
topohru0215            0.11543      30.00000      30.00000     121.00000       0.00000  
topohru0216            0.25467      30.00000      30.00000     121.00000       0.00000  
topohru0217            0.28792      30.00000      30.00000     121.00000       0.00000  
topohru0218            0.18404      30.00000      30.00000     121.00000       0.00000  
topohru0219            0.09652      30.00000      30.00000     121.00000       0.00000  
topohru0220            0.46617      30.00000      30.00000     121.00000       0.00000  
topohru0221            0.07638      30.00000      30.00000     121.00000       0.00000  
topohru0222            0.20815      30.00000      30.00000     121.00000       0.00000  
topohru0223            0.05721      30.00000      30.00000     121.00000       0.00000  
topohru0224            0.17411      30.00000      30.00000     121.00000       0.00000  
topohru0225            0.14843      30.00000      30.00000     121.00000       0.00000  
topohru0226            0.19484      30.00000      30.00000     121.00000       0.00000  
topohru0227            0.22999      30.00000      30.00000     121.00000       0.00000  
topohru0228            0.12798      30.00000      30.00000     121.00000       0.00000  
topohru0229            0.04428      30.00000      30.00000     121.00000       0.00000  
topohru0230            0.22106      30.00000      30.00000     121.00000       0.00000  
topohru0231            0.07316      30.00000      30.00000     121.00000       0.00000  
topohru0232            0.13707      30.00000      30.00000     121.00000       0.00000  
topohru0233            0.19683      30.00000      30.00000     121.00000       0.00000  
topohru0234            0.11916      30.00000      30.00000     121.00000       0.00000  
topohru0235            0.15631      30.00000      30.00000     121.00000       0.00000  
topohru0236            0.19758      30.00000      30.00000     121.00000       0.00000  
topohru0237            0.06991      30.00000      30.00000     121.00000       0.00000  
topohru0238            0.16937      30.00000      30.00000     121.00000       0.00000  
topohru0239            0.04781      30.00000      30.00000     121.00000       0.00000  
topohru0240            0.15081      30.00000      30.00000     121.00000       0.00000  
topohru0241            0.18908      30.00000      30.00000     121.00000       0.00000  
topohru0242            0.10375      30.00000      30.00000     121.00000       0.00000  
topohru0243            0.25357      30.00000      30.00000     121.00000       0.00000  
topohru0244            0.09070      30.00000      30.00000     121.00000       0.00000  
topohru0245            0.02247      30.00000      30.00000     121.00000       0.00000  
topohru0246            0.04991      30.00000      30.00000     121.00000       0.00000  
topohru0247            0.12542      30.00000      30.00000     121.00000       0.00000  
topohru0248            0.17016      30.00000      30.00000     121.00000       0.00000  
topohru0249            0.16070      30.00000      30.00000     121.00000       0.00000  
topohru0250            0.18981      30.00000      30.00000     121.00000       0.00000  
topohru0251            0.18267      30.00000      30.00000     121.00000       0.00000  
topohru0252            0.17349      30.00000      30.00000     121.00000       0.00000  
topohru0253            0.15302      30.00000      30.00000     121.00000       0.00000  
topohru0254            0.19759      30.00000      30.00000     121.00000       0.00000  
topohru0255            0.40594      30.00000      30.00000     121.00000       0.00000  
topohru0256            0.16046      30.00000      30.00000     121.00000       0.00000  
topohru0257            0.03955      30.00000      30.00000     121.00000       0.00000  
topohru0258            0.21956      30.00000      30.00000     121.00000       0.00000  
topohru0259            0.15497      30.00000      30.00000     121.00000       0.00000  
topohru0260            0.05330      30.00000      30.00000     121.00000       0.00000  
topohru0261            0.26463      30.00000      30.00000     121.00000       0.00000  
topohru0262            0.24064      30.00000      30.00000     121.00000       0.00000  
topohru0263            0.36987      30.00000      30.00000     121.00000       0.00000  
topohru0264            0.06422      30.00000      30.00000     121.00000       0.00000  
topohru0265            0.27430      30.00000      30.00000     121.00000       0.00000  
topohru0266            0.12732      30.00000      30.00000     121.00000       0.00000  
topohru0267            0.17691      30.00000      30.00000     121.00000       0.00000  
topohru0268            0.14412      30.00000      30.00000     121.00000       0.00000  
topohru0269            0.18842      30.00000      30.00000     121.00000       0.00000  
topohru0270            0.19887      30.00000      30.00000     121.00000       0.00000  
topohru0271            0.20786      30.00000      30.00000     121.00000       0.00000  
topohru0272            0.24993      30.00000      30.00000     121.00000       0.00000  
topohru0273            0.06552      30.00000      30.00000     121.00000       0.00000  
topohru0274            0.04765      30.00000      30.00000     121.00000       0.00000  
topohru0275            0.13645      30.00000      30.00000     121.00000       0.00000  
topohru0276            0.03598      30.00000      30.00000     121.00000       0.00000  
topohru0277            0.12507      30.00000      30.00000     121.00000       0.00000  
topohru0278            0.02581      30.00000      30.00000     121.00000       0.00000  
topohru0279            0.39132      30.00000      30.00000     121.00000       0.00000  
topohru0280            0.11651      30.00000      30.00000     121.00000       0.00000  
topohru0281            0.06599      30.00000      30.00000     121.00000       0.00000  
topohru0282            0.15686      30.00000      30.00000     121.00000       0.00000  
topohru0283            0.04269      30.00000      30.00000     121.00000       0.00000  
topohru0284            0.50937      30.00000      30.00000     121.00000       0.00000  
topohru0285            0.01531      30.00000      30.00000     121.00000       0.00000  
topohru0286            0.18079      30.00000      30.00000     121.00000       0.00000  
topohru0287            0.16406      30.00000      30.00000     121.00000       0.00000  
topohru0288            0.07310      30.00000      30.00000     121.00000       0.00000  
topohru0289            0.14859      30.00000      30.00000     121.00000       0.00000  
topohru0290            0.09186      30.00000      30.00000     121.00000       0.00000  
topohru0291            0.19517      30.00000      30.00000     121.00000       0.00000  
topohru0292            0.31134      30.00000      30.00000     121.00000       0.00000  
topohru0293            0.34573      30.00000      30.00000     121.00000       0.00000  
topohru0294            0.22866      30.00000      30.00000     121.00000       0.00000  
topohru0295            0.00027      30.00000      30.00000     121.00000       0.00000  
topohru0296            0.15139      30.00000      30.00000     121.00000       0.00000  
topohru0297            0.26848      30.00000      30.00000     121.00000       0.00000  
topohru0298            0.25056      30.00000      30.00000     121.00000       0.00000  
topohru0299            0.41100      30.00000      30.00000     121.00000       0.00000  
topohru0300            0.15376      30.00000      30.00000     121.00000       0.00000  
topohru0301            0.08333      30.00000      30.00000     121.00000       0.00000  
topohru0302            0.10910      30.00000      30.00000     121.00000       0.00000  
topohru0303            0.07098      30.00000      30.00000     121.00000       0.00000  
topohru0304            0.03807      30.00000      30.00000     121.00000       0.00000  
topohru0305            0.22532      30.00000      30.00000     121.00000       0.00000  
topohru0306            0.09642      30.00000      30.00000     121.00000       0.00000  
topohru0307            0.13962      30.00000      30.00000     121.00000       0.00000  
topohru0308            0.06231      30.00000      30.00000     121.00000       0.00000  
topohru0309            0.14922      30.00000      30.00000     121.00000       0.00000  
topohru0310            0.39297      30.00000      30.00000     121.00000       0.00000  
topohru0311            0.17193      30.00000      30.00000     121.00000       0.00000  
topohru0312            0.12286      30.00000      30.00000     121.00000       0.00000  
topohru0313            0.16420      30.00000      30.00000     121.00000       0.00000  
topohru0314            0.12130      30.00000      30.00000     121.00000       0.00000  
topohru0315            0.29321      30.00000      30.00000     121.00000       0.00000  
topohru0316            0.01841      30.00000      30.00000     121.00000       0.00000  
topohru0317            0.18891      30.00000      30.00000     121.00000       0.00000  
topohru0318            0.17387      30.00000      30.00000     121.00000       0.00000  
topohru0319            0.23313      30.00000      30.00000     121.00000       0.00000  
topohru0320            0.17461      30.00000      30.00000     121.00000       0.00000  
topohru0321            0.01711      30.00000      30.00000     121.00000       0.00000  
topohru0322            0.05289      30.00000      30.00000     121.00000       0.00000  
topohru0323            0.05022      30.00000      30.00000     121.00000       0.00000  
topohru0324            0.35486      30.00000      30.00000     121.00000       0.00000  
topohru0325            0.14320      30.00000      30.00000     121.00000       0.00000  
topohru0326            0.20085      30.00000      30.00000     121.00000       0.00000  
topohru0327            0.16486      30.00000      30.00000     121.00000       0.00000  
topohru0328            0.14412      30.00000      30.00000     121.00000       0.00000  
topohru0329            0.27697      30.00000      30.00000     121.00000       0.00000  
topohru0330            0.26060      30.00000      30.00000     121.00000       0.00000  
topohru0331            0.17863      30.00000      30.00000     121.00000       0.00000  
topohru0332            0.03417      30.00000      30.00000     121.00000       0.00000  
topohru0333            0.15858      30.00000      30.00000     121.00000       0.00000  
topohru0334            0.31252      30.00000      30.00000     121.00000       0.00000  
topohru0335            0.09947      30.00000      30.00000     121.00000       0.00000  