weather-sta.cli: written by SWATprepR R package on 2025-01-10 12:45:18.761106 for SWAT+ rev.60.5.4
name                            wgn                         pcp                         tmp                         slr                         hmd                         wnd                     wnd_dir                    atmo_dep
s4648n1568e               LetMb_slr                 sta_id1.pcp                 sta_id1.tmp                 sta_id1.slr                 sta_id1.hmd                 sta_id1.wnd                        null                 atmodep.cli
s4664n157e               PolVrh_hmd                 sta_id2.pcp                 sta_id2.tmp                 sta_id2.slr                 sta_id2.hmd                 sta_id2.wnd                        null                 atmodep.cli
