weather-wgn.cli: written by SWAT+ editor v2.1.0 on 2025-01-10 12:35 for SWAT+ rev.2.1.4
LetMb_slr                      46.48000      15.68000     264.00000        42  
 tmp_max_ave   tmp_min_ave    tmp_max_sd    tmp_min_sd       pcp_ave        pcp_sd      pcp_skew       wet_dry       wet_wet      pcp_days       pcp_hhr       slr_ave       dew_ave       wnd_ave  
     3.81836      -4.86490       5.36057       4.97764       1.19485       3.74047       4.63810       0.18686       0.44512       7.80952      14.70282       4.26441       0.83559       0.85545  
     6.69773      -3.72553       5.77596       4.96838       1.69385       4.38873       3.57876       0.19104       0.51917       8.07143      14.32290       7.03893       0.78072       1.01491  
    11.66859      -0.03656       5.58452       4.15401       1.78295       5.21990       4.28136       0.21753       0.46825       9.00000      20.21163      10.80365       0.73235       1.24301  
    16.54786       4.27865       4.88778       3.70989       2.04778       5.07612       4.05165       0.30065       0.51959      11.54762      19.45179      15.33785       0.70548       1.25444  
    20.80891       8.88502       4.36986       3.23102       3.22588       7.39806       4.28008       0.34049       0.60365      14.35714      29.86154      18.97164       0.72216       1.12281  
    24.19190      12.58984       4.19639       3.10700       3.78706       8.80812       4.09814       0.34588       0.57996      13.54762      35.48433      20.91280       0.72775       1.07000  
    26.11575      14.23080       3.68329       2.74353       3.46490       8.53177       4.29510       0.33165       0.48330      12.11905      40.57523      21.23272       0.73488       0.92043  
    25.64401      13.89286       4.03287       2.75314       3.83848       9.52872       3.58127       0.29257       0.47863      11.14286      30.69736      18.52407       0.76950       0.89770  
    21.09437      10.13317       3.86704       3.31112       3.82151       9.80413       3.76453       0.24096       0.53256      10.23810      32.78691      13.09594       0.80763       0.86690  
    15.93041       5.66406       4.69416       4.17902       2.82435       8.36510       4.70236       0.24068       0.48921       9.92857      31.57117       8.40528       0.83015       0.90307  
     9.36968       1.07294       5.20260       4.79613       2.68222       6.95959       4.19775       0.22612       0.56813      10.30952      26.36630       4.71584       0.85225       0.89048  
     4.45783      -3.29631       4.67439       4.53522       1.99677       5.55913       4.10825       0.21094       0.53202       9.66667      18.42602       3.50008       0.86324       0.72496  
PolVrh_hmd                     46.64000      15.70000     280.00000        42  
 tmp_max_ave   tmp_min_ave    tmp_max_sd    tmp_min_sd       pcp_ave        pcp_sd      pcp_skew       wet_dry       wet_wet      pcp_days       pcp_hhr       slr_ave       dew_ave       wnd_ave  
     3.81836      -4.86490       5.36057       4.97764       1.19485       3.74047       4.63810       0.18686       0.44512       7.80952      14.70282       4.26441       0.83559       0.85545  
     6.69773      -3.72553       5.77596       4.96838       1.69385       4.38873       3.57876       0.19104       0.51917       8.07143      14.32290       7.03893       0.78072       1.01491  
    11.66859      -0.03656       5.58452       4.15401       1.78295       5.21990       4.28136       0.21753       0.46825       9.00000      20.21163      10.80365       0.73235       1.24301  
    16.54786       4.27865       4.88778       3.70989       2.04778       5.07612       4.05165       0.30065       0.51959      11.54762      19.45179      15.33785       0.70548       1.25444  
    20.80891       8.88502       4.36986       3.23102       3.22588       7.39806       4.28008       0.34049       0.60365      14.35714      29.86154      18.97164       0.72216       1.12281  
    24.19190      12.58984       4.19639       3.10700       3.78706       8.80812       4.09814       0.34588       0.57996      13.54762      35.48433      20.91280       0.72775       1.07000  
    26.11575      14.23080       3.68329       2.74353       3.46490       8.53177       4.29510       0.33165       0.48330      12.11905      40.57523      21.23272       0.73488       0.92043  
    25.64401      13.89286       4.03287       2.75314       3.83848       9.52872       3.58127       0.29257       0.47863      11.14286      30.69736      18.52407       0.76950       0.89770  
    21.09437      10.13317       3.86704       3.31112       3.82151       9.80413       3.76453       0.24096       0.53256      10.23810      32.78691      13.09594       0.80763       0.86690  
    15.93041       5.66406       4.69416       4.17902       2.82435       8.36510       4.70236       0.24068       0.48921       9.92857      31.57117       8.40528       0.83015       0.90307  
     9.36968       1.07294       5.20260       4.79613       2.68222       6.95959       4.19775       0.22612       0.56813      10.30952      26.36630       4.71584       0.85225       0.89048  
     4.45783      -3.29631       4.67439       4.53522       1.99677       5.55913       4.10825       0.21094       0.53202       9.66667      18.42602       3.50008       0.86324       0.72496  
