wnd.cli: Wind speed file names - file written by SWATprepR R package 2025-01-10 12:34:49.108962
filename
sta_id1.wnd
sta_id2.wnd
